                                   MODFLOW 6
                U.S. GEOLOGICAL SURVEY MODULAR HYDROLOGIC MODEL
                            VERSION 6.0.4 03/13/2019

   MODFLOW 6 compiled Mar 21 2019 15:37:31 with IFORT compiler (ver. 19.0.0)

This software has been approved for release by the U.S. Geological 
Survey (USGS). Although the software has been subjected to rigorous 
review, the USGS reserves the right to update the software as needed 
pursuant to further analysis and review. No warranty, expressed or 
implied, is made by the USGS or the U.S. Government as to the 
functionality of the software and related material nor shall the 
fact of release constitute any such warranty. Furthermore, the 
software is released on condition that neither the USGS nor the U.S. 
Government shall be held liable for any damages resulting from its 
authorized or unauthorized use. Also refer to the USGS Water 
Resources Software User Rights Notice for complete use, copyright, 
and distribution information.


System command used to initiate simulation:
../../exe/mf6

MODFLOW was compiled using uniform precision.
Real Variables
  PRECISION: 15
  KIND: 8
  TINY (smallest non-zero value):    2.225074-308
  HUGE (largest value):    1.797693+308
Integer Variables
  KIND: 4
  HUGE (largest value): 2147483647
  BIT_SIZE: 32
 

 OPENED mfsim.nam
 FILE TYPE:NAM   UNIT 1001   STATUS:OLD                 
 FORMAT:FORMATTED              ACCESS:SEQUENTIAL          
 ACTION:READ                


 READING SIMULATION OPTIONS
 END OF SIMULATION OPTIONS

 READING SIMULATION TIMING

 OPENED first2D_mf6.tdis
 FILE TYPE:TDIS   UNIT 1002   STATUS:OLD                 
 FORMAT:FORMATTED              ACCESS:SEQUENTIAL          
 ACTION:READ                


 TDIS -- TEMPORAL DISCRETIZATION PACKAGE,
 VERSION 1 : 11/13/2014 - INPUT READ FROM UNIT 1002
 PROCESSING TDIS OPTIONS
    SIMULATION TIME UNIT IS SECONDS
 END OF TDIS OPTIONS
 PROCESSING TDIS DIMENSIONS
    1 STRESS PERIOD(S) IN SIMULATION
 END OF TDIS DIMENSIONS
 PROCESSING TDIS PERIODDATA


 STRESS PERIOD     LENGTH       TIME STEPS     MULTIPLIER FOR DELT
 ----------------------------------------------------------------------------
        1         1.000000          1                    1.000
 END OF TDIS PERIODDATA
 END OF SIMULATION TIMING

 READING SIMULATION MODELS
    GWF6 model IMPORT_MPS will be created as model 1
 END OF SIMULATION MODELS

 READING SIMULATION EXCHANGES
 END OF SIMULATION EXCHANGES

 READING SOLUTIONGROUP

 Creating solution: SLN_1           

 OPENED first2D_mf6.ims
 FILE TYPE:IMS   UNIT 1019   STATUS:OLD                 
 FORMAT:FORMATTED              ACCESS:SEQUENTIAL          
 ACTION:READ                

 END OF SIMULATION SOLUTIONGROUP

ERROR REPORT:

 Hydraulic property K is <= 0 for cell (1,4,99)   -0.519868
 Hydraulic property K is <= 0 for cell (1,4,101)   -0.283426
 Hydraulic property K is <= 0 for cell (1,6,100)   -0.222621
 Hydraulic property K is <= 0 for cell (1,11,98)   -0.176853
 Hydraulic property K is <= 0 for cell (1,11,100)   -0.459909
 Hydraulic property K is <= 0 for cell (1,20,92)   -0.375331
 Hydraulic property K is <= 0 for cell (1,20,93)   -0.570253
 Hydraulic property K is <= 0 for cell (1,21,85)   -0.668101
 Hydraulic property K is <= 0 for cell (1,21,88)   -0.362058
 Hydraulic property K is <= 0 for cell (1,21,89)   -0.805320
 Hydraulic property K is <= 0 for cell (1,22,84)   -0.198758
 Hydraulic property K is <= 0 for cell (1,22,86)   -3.816013E-02
 Hydraulic property K is <= 0 for cell (1,22,94)   -0.710547
 Hydraulic property K is <= 0 for cell (1,22,95)   -1.248429E-02
 Hydraulic property K is <= 0 for cell (1,23,91)   -0.126632
 Hydraulic property K is <= 0 for cell (1,23,97)   -0.111307
 Hydraulic property K is <= 0 for cell (1,23,98)   -0.114173
 Hydraulic property K is <= 0 for cell (1,25,80)   -1.407246E-02
 Hydraulic property K is <= 0 for cell (1,27,88)   -0.305342
 Hydraulic property K is <= 0 for cell (1,28,82)   -0.445698
 ... 82 additional errors not shown for K
 ERROR OCCURRED WHILE READING FILE:
 
   C:\Users\emmal\Documents\GitHub\TM_Ludovic_Schorpp\codes_tests\Modeles2D\Im
   port_model_Val\working\import_MPS.npf
 Stopping due to error(s)
