                                   MODFLOW 6
                U.S. GEOLOGICAL SURVEY MODULAR HYDROLOGIC MODEL
                            VERSION 6.0.4 03/13/2019

   MODFLOW 6 compiled Mar 21 2019 15:37:31 with IFORT compiler (ver. 19.0.0)

This software has been approved for release by the U.S. Geological 
Survey (USGS). Although the software has been subjected to rigorous 
review, the USGS reserves the right to update the software as needed 
pursuant to further analysis and review. No warranty, expressed or 
implied, is made by the USGS or the U.S. Government as to the 
functionality of the software and related material nor shall the 
fact of release constitute any such warranty. Furthermore, the 
software is released on condition that neither the USGS nor the U.S. 
Government shall be held liable for any damages resulting from its 
authorized or unauthorized use. Also refer to the USGS Water 
Resources Software User Rights Notice for complete use, copyright, 
and distribution information.


System command used to initiate simulation:
../../exe/mf6

MODFLOW was compiled using uniform precision.
Real Variables
  PRECISION: 15
  KIND: 8
  TINY (smallest non-zero value):    2.225074-308
  HUGE (largest value):    1.797693+308
Integer Variables
  KIND: 4
  HUGE (largest value): 2147483647
  BIT_SIZE: 32
 

 OPENED mfsim.nam
 FILE TYPE:NAM   UNIT 1001   STATUS:OLD                 
 FORMAT:FORMATTED              ACCESS:SEQUENTIAL          
 ACTION:READ                


 READING SIMULATION OPTIONS
 END OF SIMULATION OPTIONS

 READING SIMULATION TIMING

 OPENED first2D_mf6.tdis
 FILE TYPE:TDIS   UNIT 1002   STATUS:OLD                 
 FORMAT:FORMATTED              ACCESS:SEQUENTIAL          
 ACTION:READ                


 TDIS -- TEMPORAL DISCRETIZATION PACKAGE,
 VERSION 1 : 11/13/2014 - INPUT READ FROM UNIT 1002
 PROCESSING TDIS OPTIONS
    SIMULATION TIME UNIT IS SECONDS
 END OF TDIS OPTIONS
 PROCESSING TDIS DIMENSIONS
    1 STRESS PERIOD(S) IN SIMULATION
 END OF TDIS DIMENSIONS
 PROCESSING TDIS PERIODDATA


 STRESS PERIOD     LENGTH       TIME STEPS     MULTIPLIER FOR DELT
 ----------------------------------------------------------------------------
        1         1.000000          1                    1.000
 END OF TDIS PERIODDATA
 END OF SIMULATION TIMING

 READING SIMULATION MODELS
    GWF6 model IMPORT_MPS will be created as model 1
 END OF SIMULATION MODELS

 READING SIMULATION EXCHANGES
 END OF SIMULATION EXCHANGES

 READING SOLUTIONGROUP

 Creating solution: SLN_1           

 OPENED first2D_mf6.ims
 FILE TYPE:IMS   UNIT 1019   STATUS:OLD                 
 FORMAT:FORMATTED              ACCESS:SEQUENTIAL          
 ACTION:READ                

 END OF SIMULATION SOLUTIONGROUP

 IMS -- ITERATIVE MODEL SOLUTION PACKAGE, VERSION 6, 4/28/2017
         INPUT READ FROM UNIT 1019

 PROCESSING IMS OPTIONS
 MODERATE OPTION:
 DEFAULT SOLVER INPUT VALUES REFLECT MODERETELY NONLINEAR MODEL
 END OF IMS OPTIONS
 **UNDER-RELAXATION WILL BE USED***
 
 ***IMS LINEAR SOLVER WILL BE USED***

 IMSLINEAR -- UNSTRUCTURED LINEAR SOLUTION PACKAGE, VERSION 8, 04/28/2017
 
 OUTER ITERATION CONVERGENCE CRITERION     (HCLOSE) =    0.100000E-01
 OUTER ITERATION BOUNDARY FLOW RESIDUAL (RCLOSEBND) =    0.100000E+00
 MAXIMUM NUMBER OF OUTER ITERATIONS        (MXITER) =        50
 SOLVER PRINTOUT INDEX                     (IPRIMS) =         1
 NONLINEAR ITERATION METHOD            (NONLINMETH) =         3
 LINEAR SOLUTION METHOD                   (LINMETH) =         1
 UNDER-RELAXATION WEIGHT REDUCTION FACTOR   (THETA) =    0.900000E+00
 UNDER-RELAXATION WEIGHT INCREASE INCREMENT (KAPPA) =    0.100000E-03
 UNDER-RELAXATION PREVIOUS HISTORY FACTOR   (GAMMA) =    0.000000E+00
 UNDER-RELAXATIONMOMENTUM TERM          (AMOMENTUM) =    0.000000E+00
    MAXIMUM NUMBER OF BACKTRACKS         (NUMTRACK) =         0

       SOLUTION BY THE BICONJUGATE-GRADIENT STABILIZED METHOD
 ------------------------------------------------------------------
 MAXIMUM OF     50 CALLS OF SOLUTION ROUTINE
 MAXIMUM OF    100 INTERNAL ITERATIONS PER CALL TO SOLUTION ROUTINE
 LINEAR ACCELERATION METHOD            = BCGS      
 MATRIX PRECONDITIONING TYPE           = MOD. INCOMPLETE LU  
 MATRIX SCALING APPROACH               = NO SCALING          
 MATRIX REORDERING APPROACH            = ORIGINAL ORDERING        
 NUMBER OF ORTHOGONALIZATIONS          =        0
 HEAD CHANGE CRITERION FOR CLOSURE     =    0.10000E-01
 RESIDUAL CHANGE CRITERION FOR CLOSURE =    0.10000E+00
 RESIDUAL CONVERGENCE OPTION           =        0
 RESIDUAL CONVERGENCE NORM             = INFINITY NORM   
 RELAXATION FACTOR                     =    0.97000E+00



1
                            STRESS PERIOD NO.    1, LENGTH =   1.000000    
                            -----------------------------------------------

                              NUMBER OF TIME STEPS =     1

                               MULTIPLIER FOR DELT =     1.000

                            INITIAL TIME STEP SIZE =   1.000000    


 OUTER ITERATION SUMMARY
 ---------------------------------------------------------------------------------------
                       OUTER     INNER         MAXIMUM                    MAXIMUM CHANGE
                   ITERATION ITERATION          CHANGE                    MODEL-(CELLID)
 ---------------------------------------------------------------------------------------
 Linear Solver             1       100     5398.40                       1_GWF-(1,36,64)
 Under-relaxation          1               5398.40                       1_GWF-(1,36,64)
 Linear Solver             2       100    -2992.31                       1_GWF-(1,35,65)
 Under-relaxation          2              -2693.08                       1_GWF-(1,35,65)
 Linear Solver             3        75    -300.303                       1_GWF-(1,35,65)
 Under-relaxation          3              -270.302                       1_GWF-(1,35,65)
 Linear Solver             4        24    -28.1201                       1_GWF-(1,70,69)
 Under-relaxation          4              -25.3137                       1_GWF-(1,70,69)
 Linear Solver             5        40    -55.1689                       1_GWF-(1,35,65)
 Under-relaxation          5              -49.6686                       1_GWF-(1,35,65)
 Linear Solver             6        19     39.7708                       1_GWF-(1,35,65)
 Under-relaxation          6               32.2251                       1_GWF-(1,35,65)
 Linear Solver             7        41     29.2838                       1_GWF-(1,35,65)
 Under-relaxation          7               23.7307                       1_GWF-(1,35,65)
 Linear Solver             8        56    -28.6090                       1_GWF-(1,35,65)
 Under-relaxation          8              -20.8655                       1_GWF-(1,35,65)
 Linear Solver             9        11     1.19257                       1_GWF-(1,35,65)
 Under-relaxation          9              0.782801                       1_GWF-(1,35,65)
 Linear Solver            10        26     5.70271                       1_GWF-(1,35,65)
 Under-relaxation         10               3.74383                       1_GWF-(1,35,65)
 Linear Solver            11         4    0.133556                       1_GWF-(1,38,63)
 Under-relaxation         11              7.102099E-02                   1_GWF-(1,38,63)
 Linear Solver            12        42     15.0968                       1_GWF-(1,35,65)
 Under-relaxation         12               9.91404                       1_GWF-(1,35,65)
 Linear Solver            13        33    -9.19590                       1_GWF-(1,35,65)
 Under-relaxation         13              -5.43505                       1_GWF-(1,35,65)
 Linear Solver            14        10   -0.789693                       1_GWF-(1,35,65)
 Under-relaxation         14             -0.466811                       1_GWF-(1,35,65)
 Linear Solver            15         4   -8.981379E-02                   1_GWF-(1,47,54)
 Under-relaxation         15             -5.309614E-02                   1_GWF-(1,47,54)
 Linear Solver            16         2   -4.335366E-02                   1_GWF-(1,47,54)
 Under-relaxation         16             -2.563417E-02                   1_GWF-(1,47,54)
 Linear Solver            17         1   -7.337448E-03                   1_GWF-(1,47,54)

 17 CALLS TO NUMERICAL SOLUTION IN TIME STEP 1 STRESS PERIOD 1
 588 TOTAL ITERATIONS

 INFORMATION ON VARIABLES STORED IN THE MEMORY MANAGER
 
 Number of allocated integer variables:   305414
 Number of allocated real variables:    339116
 Allocated memory in megabytes:     3.93458    
 

 Run end date and time (yyyy/mm/dd hh:mm:ss): 2020/04/01 16:41:25
 Elapsed run time:  0.291 Seconds

 Normal termination of simulation.
