                                   MODFLOW 6
                U.S. GEOLOGICAL SURVEY MODULAR HYDROLOGIC MODEL
                          GROUNDWATER FLOW MODEL (GWF)
                            VERSION 6.0.4 03/13/2019

   MODFLOW 6 compiled Mar 21 2019 15:37:31 with IFORT compiler (ver. 19.0.0)

This software has been approved for release by the U.S. Geological 
Survey (USGS). Although the software has been subjected to rigorous 
review, the USGS reserves the right to update the software as needed 
pursuant to further analysis and review. No warranty, expressed or 
implied, is made by the USGS or the U.S. Government as to the 
functionality of the software and related material nor shall the 
fact of release constitute any such warranty. Furthermore, the 
software is released on condition that neither the USGS nor the U.S. 
Government shall be held liable for any damages resulting from its 
authorized or unauthorized use. Also refer to the USGS Water 
Resources Software User Rights Notice for complete use, copyright, 
and distribution information.


MODFLOW was compiled using uniform precision.
Precision of REAL variables: 15


 OPENED DIS_Chabart.dis
 FILE TYPE:DIS6                   UNIT 1005   STATUS:OLD                 
 FORMAT:FORMATTED              ACCESS:SEQUENTIAL          
 ACTION:READ                


 OPENED DIS_Chabart.ic
 FILE TYPE:IC6                    UNIT 1006   STATUS:OLD                 
 FORMAT:FORMATTED              ACCESS:SEQUENTIAL          
 ACTION:READ                


 OPENED DIS_Chabart.npf
 FILE TYPE:NPF6                   UNIT 1007   STATUS:OLD                 
 FORMAT:FORMATTED              ACCESS:SEQUENTIAL          
 ACTION:READ                


 OPENED sea.chd
 FILE TYPE:CHD6                   UNIT 1008   STATUS:OLD                 
 FORMAT:FORMATTED              ACCESS:SEQUENTIAL          
 ACTION:READ                


 DIS -- STRUCTURED GRID DISCRETIZATION PACKAGE, VERSION 2 : 3/27/2014 - INPUT READ FROM UNIT 1005


 PROCESSING DISCRETIZATION OPTIONS
    XORIGIN SPECIFIED AS     620000.000000000    
    YORIGIN SPECIFIED AS     3024000.00000000    
 END OF DISCRETIZATION OPTIONS
 MODEL LENGTH UNIT IS UNDEFINED
 PROCESSING DISCRETIZATION DIMENSIONS
    NLAY =       5
    NROW =      38
    NCOL =      42
 END OF DISCRETIZATION DIMENSIONS
 PROCESSING GRIDDATA
 END PROCESSING GRIDDATA

 THE SPECIFIED IDOMAIN RESULTS IN A REDUCED NUMBER OF CELLS.
 NUMBER OF USER NODES:    7980
 NUMBER OF NODES IN SOLUTION:    2879



 NPF -- NODE PROPERTY FLOW PACKAGE, VERSION 1, 3/30/2015 INPUT READ FROM UNIT 1007


 PROCESSING NPF OPTIONS
    CELL-BY-CELL FLOW INFORMATION WILL BE SAVED TO BINARY FILE WHENEVER ICBCFL IS NOT ZERO.
 END OF NPF OPTIONS

 CHD   -- CHD PACKAGE, VERSION 8, 2/22/2014 INPUT READ FROM UNIT 1008

 PROCESSING CHD OPTIONS
 END OF CHD OPTIONS

 PROCESSING CHD DIMENSIONS
    MAXBOUND =       1
 END OF CHD DIMENSIONS

 IC -- INITIAL CONDITIONS PACKAGE, VERSION 8, 3/28/2015 INPUT READ FROM UNIT 1006
 PROCESSING GRIDDATA

     INITIAL HEAD =   1.000000    
 END PROCESSING GRIDDATA
 PROCESSING GRIDDATA

                ICELLTYPE = 0

                        K =  0.1000000E-03
 K33 not provided.  Assuming K33 = K.
 K22 not provided.  Assuming K22 = K.
 END PROCESSING GRIDDATA
    BINARY GRID INFORMATION WILL BE WRITTEN TO:
      UNIT NUMBER: 1010
      FILE NAME: C:\Users\emmal\Documents\GitHub\TM_Ludovic_Schorpp\codes_tests\Chabart\notebooks\working\DIS_Chabart.dis.grb

 OPENED C:\Users\emmal\Documents\GitHub\TM_Ludovic_Schorpp\codes_tests\Chabart\notebooks\working\DIS_Chabart.dis.grb
 FILE TYPE:DATA(BINARY)   UNIT 1010   STATUS:REPLACE             
 FORMAT:UNFORMATTED            ACCESS:STREAM              
 ACTION:READWRITE           

      THE LAST TIME STEP WILL BE PRINTED
      THE LAST TIME STEP WILL BE PRINTED
1
  HEAD IN LAYER   1 AT END OF TIME STEP   1 IN STRESS PERIOD    1
  ---------------------------------------------------------------------------

            1           2           3           4           5           6           7           8           9          10
           11          12          13          14          15          16          17          18          19          20
           21          22          23          24          25          26          27          28          29          30
           31          32          33          34          35          36          37          38          39          40
           41          42
 ........................................................................................................................
   1   1.0000E+30  1.0000E+30  1.0000E+30  1.0000E+30  1.0000E+30  1.0000E+30  1.0000E+30  1.0000E+30  1.0000E+30  1.0000E+30
       1.0000E+30  1.0000E+30  1.0000E+30  1.0000E+30  1.0000E+30  1.0000E+30  1.0000E+30  1.0000E+30  1.0000E+30  1.0000E+30
       1.0000E+30  1.0000E+30  1.0000E+30  1.0000E+30  1.0000E+30  1.0000E+30  1.0000E+30  1.0000E+30  1.0000E+30  2.6864E-03
       2.6391E-03  2.6094E-03  2.5237E-03  2.4910E-03  2.4299E-03  2.4065E-03  2.3885E-03  2.4042E-03  2.3961E-03  2.4458E-03
       2.3970E-03  2.4439E-03
   2   1.0000E+30  1.0000E+30  1.0000E+30  1.0000E+30  1.0000E+30  1.0000E+30  1.0000E+30  1.0000E+30  1.0000E+30  1.0000E+30
       1.0000E+30  1.0000E+30  1.0000E+30  1.0000E+30  1.0000E+30  1.0000E+30  1.0000E+30  1.0000E+30  1.0000E+30  1.0000E+30
       1.0000E+30  1.0000E+30  1.0000E+30  1.0000E+30  1.0000E+30  1.0000E+30  1.0000E+30  1.0000E+30  2.7476E-03  2.7070E-03
       2.6629E-03  2.6006E-03  2.5654E-03  2.4802E-03  2.4454E-03  2.3996E-03  2.3789E-03  2.3583E-03  2.3739E-03  2.3498E-03
       2.3965E-03  2.3291E-03
   3   1.0000E+30  1.0000E+30  1.0000E+30  1.0000E+30  1.0000E+30  1.0000E+30  1.0000E+30  1.0000E+30  1.0000E+30  1.0000E+30
       1.0000E+30  1.0000E+30  1.0000E+30  1.0000E+30  1.0000E+30  1.0000E+30  1.0000E+30  1.0000E+30  1.0000E+30  1.0000E+30
       1.0000E+30  1.0000E+30  1.0000E+30  1.0000E+30  1.0000E+30  1.0000E+30  1.0000E+30  2.8412E-03  2.7839E-03  2.7285E-03
       2.6822E-03  2.6367E-03  2.5743E-03  2.5179E-03  2.4443E-03  2.3885E-03  2.3305E-03  2.2912E-03  2.2519E-03  2.2763E-03
       2.2245E-03  2.2652E-03
   4   1.0000E+30  1.0000E+30  1.0000E+30  1.0000E+30  1.0000E+30  1.0000E+30  1.0000E+30  1.0000E+30  1.0000E+30  1.0000E+30
       1.0000E+30  1.0000E+30  1.0000E+30  1.0000E+30  1.0000E+30  1.0000E+30  1.0000E+30  1.0000E+30  1.0000E+30  1.0000E+30
       1.0000E+30  1.0000E+30  1.0000E+30  1.0000E+30  1.0000E+30  1.0000E+30  3.0187E-03  2.9279E-03  2.8494E-03  2.7814E-03
       2.7161E-03  2.6668E-03  2.5942E-03  2.5284E-03  2.4315E-03  2.3419E-03  2.2609E-03  2.1717E-03  2.1506E-03  2.0977E-03
       2.1160E-03  2.0891E-03
   5   1.0000E+30  1.0000E+30  1.0000E+30  1.0000E+30  1.0000E+30  1.0000E+30  1.0000E+30  1.0000E+30  1.0000E+30  1.0000E+30
       1.0000E+30  1.0000E+30  1.0000E+30  1.0000E+30  1.0000E+30  1.0000E+30  1.0000E+30  1.0000E+30  1.0000E+30  1.0000E+30
       1.0000E+30  1.0000E+30  3.1861E-03  3.1837E-03  3.2016E-03  3.1779E-03  3.1019E-03  3.0171E-03  2.9205E-03  2.8356E-03
       2.7587E-03  2.6835E-03  2.6109E-03  2.5004E-03  2.3926E-03  2.2852E-03  2.1670E-03  2.0793E-03  2.0064E-03  1.9616E-03
       1.9537E-03  1.9214E-03
   6   1.0000E+30  1.0000E+30  1.0000E+30  1.0000E+30  1.0000E+30  1.0000E+30  1.0000E+30  1.0000E+30  1.0000E+30  1.0000E+30
       1.0000E+30  1.0000E+30  1.0000E+30  1.0000E+30  1.0000E+30  1.0000E+30  1.0000E+30  1.0000E+30  1.0000E+30  1.0000E+30
       1.0000E+30  1.0000E+30  3.1884E-03  3.1901E-03  3.2225E-03  3.2159E-03  3.1707E-03  3.0871E-03  2.9950E-03  2.8878E-03
       2.8001E-03  2.6948E-03  2.5893E-03  2.4621E-03  2.3393E-03  2.2225E-03  2.0683E-03  1.9764E-03  1.8657E-03  1.8287E-03
       1.7601E-03  1.7621E-03
   7   1.0000E+30  1.0000E+30  1.0000E+30  1.0000E+30  1.0000E+30  1.0000E+30  1.0000E+30  1.0000E+30  1.0000E+30  1.0000E+30
       1.0000E+30  1.0000E+30  1.0000E+30  1.0000E+30  1.0000E+30  1.0000E+30  1.0000E+30  1.0000E+30  1.0000E+30  1.0000E+30
       1.0000E+30  1.0000E+30  3.1590E-03  3.1935E-03  3.2291E-03  3.2380E-03  3.2014E-03  3.1360E-03  3.0404E-03  2.9406E-03
       2.8164E-03  2.7025E-03  2.5581E-03  2.4260E-03  2.2795E-03  2.1163E-03  1.9934E-03  1.8527E-03  1.7487E-03  1.6351E-03
       1.5684E-03  1.5369E-03
   8   1.0000E+30  1.0000E+30  1.0000E+30  1.0000E+30  1.0000E+30  1.0000E+30  1.0000E+30  1.0000E+30  1.0000E+30  1.0000E+30
       1.0000E+30  1.0000E+30  1.0000E+30  1.0000E+30  1.0000E+30  1.0000E+30  1.0000E+30  1.0000E+30  1.0000E+30  1.0000E+30
       3.0396E-03  3.0806E-03  3.1271E-03  3.1770E-03  3.2124E-03  3.2256E-03  3.2069E-03  3.1467E-03  3.0633E-03  2.9545E-03
       2.8389E-03  2.6939E-03  2.5416E-03  2.3631E-03  2.2173E-03  2.0459E-03  1.8907E-03  1.7257E-03  1.5734E-03  1.4487E-03
       1.3425E-03  1.2881E-03
   9   1.0000E+30  1.0000E+30  1.0000E+30  1.0000E+30  1.0000E+30  1.0000E+30  1.0000E+30  1.0000E+30  1.0000E+30  1.0000E+30
       1.0000E+30  1.0000E+30  1.0000E+30  1.0000E+30  1.0000E+30  1.0000E+30  1.0000E+30  1.0000E+30  1.0000E+30  1.0000E+30
       2.9985E-03  3.0361E-03  3.0864E-03  3.1360E-03  3.1730E-03  3.1946E-03  3.1721E-03  3.1243E-03  3.0513E-03  2.9575E-03
       2.8343E-03  2.6776E-03  2.5028E-03  2.3344E-03  2.1484E-03  1.9778E-03  1.7752E-03  1.6153E-03  1.4352E-03  1.2308E-03
       1.0702E-03  1.0390E-03
  10   1.0000E+30  1.0000E+30  1.0000E+30  1.0000E+30  1.0000E+30  1.0000E+30  1.0000E+30  1.0000E+30  1.0000E+30  1.0000E+30
       1.0000E+30  1.0000E+30  1.0000E+30  1.0000E+30  1.0000E+30  1.0000E+30  1.0000E+30  1.0000E+30  1.0000E+30  1.0000E+30
       3.0016E-03  2.9756E-03  3.0298E-03  3.0828E-03  3.1171E-03  3.1276E-03  3.1049E-03  3.0734E-03  3.0131E-03  2.9269E-03
       2.8079E-03  2.6542E-03  2.4753E-03  2.2887E-03  2.1111E-03  1.9097E-03  1.7347E-03  1.5234E-03  1.2938E-03  1.0188E-03
       7.1026E-04  7.5180E-04
  11   1.0000E+30  1.0000E+30  1.0000E+30  1.0000E+30  1.0000E+30  1.0000E+30  1.0000E+30  1.0000E+30  1.0000E+30  1.0000E+30
       1.0000E+30  1.0000E+30  1.0000E+30  1.0000E+30  1.0000E+30  1.0000E+30  1.0000E+30  1.0000E+30  1.0000E+30  1.0000E+30
       1.0000E+30  1.0000E+30  1.0000E+30  3.0044E-03  3.0343E-03  3.0460E-03  3.0258E-03  2.9957E-03  2.9485E-03  2.8794E-03
       2.7655E-03  2.6198E-03  2.4445E-03  2.2668E-03  2.0803E-03  1.8983E-03  1.6964E-03  1.4938E-03  1.2380E-03  8.3339E-04
        0.000      5.2172E-04
  12   1.0000E+30  1.0000E+30  1.0000E+30  1.0000E+30  1.0000E+30  1.0000E+30  1.0000E+30  1.0000E+30  1.0000E+30  1.0000E+30
       1.0000E+30  1.0000E+30  1.0000E+30  1.0000E+30  1.0000E+30  1.0000E+30  1.0000E+30  1.0000E+30  1.0000E+30  1.0000E+30
       1.0000E+30  1.0000E+30  1.0000E+30  1.0000E+30  1.0000E+30  1.0000E+30  2.9245E-03  2.9050E-03  2.8779E-03  2.8173E-03
       2.7189E-03  2.5820E-03  2.4205E-03  2.2519E-03  2.0828E-03  1.9065E-03  1.7326E-03  1.5413E-03  1.3239E-03  1.0448E-03
       7.5131E-04  7.8520E-04
  13   1.0000E+30  1.0000E+30  1.0000E+30  1.0000E+30  1.0000E+30  1.0000E+30  1.0000E+30  1.0000E+30  1.0000E+30  1.0000E+30
       1.0000E+30  1.0000E+30  1.0000E+30  1.0000E+30  1.0000E+30  1.0000E+30  1.0000E+30  1.0000E+30  1.0000E+30  1.0000E+30
       1.0000E+30  1.0000E+30  1.0000E+30  1.0000E+30  1.0000E+30  1.0000E+30  2.8224E-03  2.8180E-03  2.7991E-03  2.7477E-03
       2.6655E-03  2.5419E-03  2.3983E-03  2.2477E-03  2.0913E-03  1.9421E-03  1.7804E-03  1.6202E-03  1.4674E-03  1.2911E-03
       1.1260E-03  1.0852E-03
  14   1.0000E+30  1.0000E+30  1.0000E+30  1.0000E+30  1.0000E+30  1.0000E+30  1.0000E+30  1.0000E+30  1.0000E+30  1.0000E+30
       1.0000E+30  1.0000E+30  1.0000E+30  1.0000E+30  1.0000E+30  1.0000E+30  1.0000E+30  1.0000E+30  1.0000E+30  1.0000E+30
       1.0000E+30  1.0000E+30  1.0000E+30  1.0000E+30  1.0000E+30  1.0000E+30  2.8003E-03  2.7323E-03  2.7193E-03  2.6823E-03
       2.6049E-03  2.5041E-03  2.3747E-03  2.2403E-03  2.1080E-03  1.9725E-03  1.8527E-03  1.7208E-03  1.5922E-03  1.4759E-03
       1.3802E-03  1.3386E-03
  15   1.0000E+30  1.0000E+30  1.0000E+30  1.0000E+30  1.0000E+30  1.0000E+30  1.0000E+30  1.0000E+30  1.0000E+30  1.0000E+30
       1.0000E+30  1.0000E+30  1.0000E+30  1.0000E+30  1.0000E+30  1.0000E+30  1.0000E+30  1.0000E+30  1.0000E+30  1.0000E+30
       1.0000E+30  1.0000E+30  1.0000E+30  1.0000E+30  1.0000E+30  3.2643E-03  3.0233E-03  2.8205E-03  2.6428E-03  2.6147E-03
       2.5499E-03  2.4571E-03  2.3473E-03  2.2339E-03  2.1177E-03  2.0053E-03  1.9008E-03  1.8056E-03  1.7138E-03  1.6363E-03
       1.5593E-03  1.5282E-03
  16   1.0000E+30  1.0000E+30  1.0000E+30  1.0000E+30  1.0000E+30  1.0000E+30  1.0000E+30  1.0000E+30  1.0000E+30  1.0000E+30
       1.0000E+30  1.0000E+30  1.0000E+30  1.0000E+30  1.0000E+30  1.0000E+30  1.0000E+30  1.0000E+30  1.0000E+30  1.0000E+30
       1.0000E+30  1.0000E+30  1.0000E+30  3.8717E-03  3.6738E-03  3.3446E-03  3.1330E-03  2.9486E-03  2.8072E-03  2.6791E-03
       2.4968E-03  2.4197E-03  2.3283E-03  2.2270E-03  2.1325E-03  2.0347E-03  1.9485E-03  1.8783E-03  1.8112E-03  1.7522E-03
       1.7124E-03  1.6813E-03
  17   1.0000E+30  1.0000E+30  1.0000E+30  1.0000E+30  1.0000E+30  1.0000E+30  1.0000E+30  1.0000E+30  1.0000E+30  1.0000E+30
       1.0000E+30  1.0000E+30  1.0000E+30  1.0000E+30  1.0000E+30  1.0000E+30  1.0000E+30  1.0000E+30  4.5574E-03  4.5249E-03
       4.3614E-03  4.1487E-03  4.0269E-03  3.9325E-03  3.7565E-03  3.4656E-03  3.1870E-03  2.9894E-03  2.8561E-03  2.7744E-03
       1.0000E+30  1.0000E+30  1.0000E+30  1.0000E+30  1.0000E+30  2.0631E-03  2.0035E-03  1.9404E-03  1.8966E-03  1.8545E-03
       1.8236E-03  1.8127E-03
  18   1.0000E+30  1.0000E+30  1.0000E+30  1.0000E+30  1.0000E+30  1.0000E+30  5.1546E-03  5.1540E-03  5.1428E-03  5.1214E-03
       5.0941E-03  5.0690E-03  5.0334E-03  4.9855E-03  4.9426E-03  4.8915E-03  4.7552E-03  4.6500E-03  4.5854E-03  4.5450E-03
       4.3989E-03  4.2068E-03  4.1041E-03  3.9845E-03  3.8491E-03  3.6613E-03  1.0000E+30  1.0000E+30  1.0000E+30  1.0000E+30
       1.0000E+30  1.0000E+30  1.0000E+30  1.0000E+30  2.3372E-03  2.1691E-03  2.1146E-03  2.0118E-03  1.9696E-03  1.9449E-03
       1.9256E-03  1.9071E-03
  19   1.0000E+30  1.0000E+30  1.0000E+30  1.0000E+30  5.1303E-03  5.1436E-03  5.1553E-03  5.1539E-03  5.1400E-03  5.1211E-03
       5.0948E-03  5.0672E-03  5.0354E-03  4.9835E-03  4.9248E-03  4.8291E-03  4.7124E-03  4.6658E-03  4.6056E-03  4.5437E-03
       4.4418E-03  4.2755E-03  4.1738E-03  4.0784E-03  4.0018E-03  1.0000E+30  1.0000E+30  1.0000E+30  1.0000E+30  1.0000E+30
       1.0000E+30  1.0000E+30  1.0000E+30  1.0000E+30  2.5198E-03  1.0000E+30  2.2922E-03  2.2283E-03  2.1941E-03  2.1752E-03
       2.1686E-03  2.1764E-03
  20   1.0000E+30  1.0000E+30  1.0000E+30  5.0920E-03  5.1152E-03  5.1355E-03  5.1462E-03  5.1451E-03  5.1357E-03  5.1167E-03
       5.0896E-03  5.0625E-03  5.0212E-03  4.9525E-03  4.8835E-03  4.8018E-03  4.7237E-03  4.6732E-03  4.6212E-03  4.5649E-03
       4.5009E-03  4.3761E-03  4.2305E-03  4.1236E-03  4.0627E-03  1.0000E+30  1.0000E+30  1.0000E+30  1.0000E+30  1.0000E+30
       1.0000E+30  1.0000E+30  1.0000E+30  1.0000E+30  2.7291E-03  2.7167E-03  2.5489E-03  2.4748E-03  2.4334E-03  2.4151E-03
       2.4054E-03  2.4098E-03
  21   1.0000E+30  5.0112E-03  5.0252E-03  5.0739E-03  5.1056E-03  5.1244E-03  5.1379E-03  5.1406E-03  5.1333E-03  5.1128E-03
       5.0825E-03  5.0485E-03  4.9974E-03  4.9265E-03  4.8621E-03  4.7955E-03  4.7282E-03  4.6690E-03  4.6187E-03  4.5799E-03
       4.5249E-03  4.4734E-03  4.3928E-03  1.0000E+30  1.0000E+30  1.0000E+30  1.0000E+30  1.0000E+30  1.0000E+30  1.0000E+30
       1.0000E+30  1.0000E+30  1.0000E+30  1.0000E+30  2.9507E-03  2.8934E-03  2.7944E-03  2.7244E-03  2.6781E-03  2.6545E-03
       2.6478E-03  2.6532E-03
  22   4.9918E-03  5.0023E-03  5.0272E-03  5.0598E-03  5.0951E-03  5.1190E-03  5.1334E-03  5.1384E-03  5.1293E-03  5.0975E-03
       5.0603E-03  5.0202E-03  4.9609E-03  4.9017E-03  4.8546E-03  4.7924E-03  4.7263E-03  4.6716E-03  4.6213E-03  4.5853E-03
       4.5407E-03  4.4907E-03  4.4562E-03  1.0000E+30  1.0000E+30  1.0000E+30  1.0000E+30  1.0000E+30  1.0000E+30  1.0000E+30
       1.0000E+30  1.0000E+30  3.5134E-03  3.3995E-03  3.2156E-03  3.1230E-03  3.0372E-03  2.9698E-03  2.9219E-03  2.9006E-03
       2.8959E-03  2.9006E-03
  23   4.9818E-03  4.9945E-03  5.0230E-03  5.0452E-03  1.0000E+30  1.0000E+30  1.0000E+30  1.0000E+30  1.0000E+30  5.0686E-03
       5.0402E-03  4.9823E-03  4.9274E-03  4.8892E-03  4.8490E-03  4.8017E-03  4.7378E-03  4.6811E-03  4.6285E-03  4.5867E-03
       4.5616E-03  1.0000E+30  1.0000E+30  1.0000E+30  1.0000E+30  1.0000E+30  1.0000E+30  1.0000E+30  3.9294E-03  3.9294E-03
       3.8777E-03  3.7957E-03  3.6473E-03  3.5246E-03  3.4072E-03  3.3308E-03  3.2658E-03  3.2039E-03  3.1513E-03  3.1354E-03
       3.1292E-03  3.1308E-03
  24   4.9755E-03  1.0000E+30  1.0000E+30  1.0000E+30  1.0000E+30  1.0000E+30  1.0000E+30  1.0000E+30  1.0000E+30  1.0000E+30
       1.0000E+30  4.9400E-03  4.9125E-03  4.8787E-03  4.8507E-03  4.8189E-03  4.7772E-03  1.0000E+30  1.0000E+30  1.0000E+30
       1.0000E+30  1.0000E+30  1.0000E+30  1.0000E+30  1.0000E+30  1.0000E+30  1.0000E+30  1.0000E+30  1.0000E+30  3.9767E-03
       3.9328E-03  3.8745E-03  3.7847E-03  3.6744E-03  3.5882E-03  3.5220E-03  3.4703E-03  3.4243E-03  3.3723E-03  3.3523E-03
       3.3439E-03  3.3393E-03
  25   1.0000E+30  1.0000E+30  1.0000E+30  1.0000E+30  1.0000E+30  1.0000E+30  1.0000E+30  1.0000E+30  1.0000E+30  1.0000E+30
       1.0000E+30  1.0000E+30  1.0000E+30  4.8668E-03  4.8568E-03  1.0000E+30  1.0000E+30  1.0000E+30  1.0000E+30  1.0000E+30
       1.0000E+30  1.0000E+30  1.0000E+30  1.0000E+30  1.0000E+30  1.0000E+30  1.0000E+30  1.0000E+30  4.0977E-03  4.0515E-03
       3.9902E-03  3.9775E-03  3.9244E-03  3.8351E-03  3.7356E-03  3.6695E-03  3.6376E-03  3.6127E-03  3.5749E-03  3.5528E-03
       3.5412E-03  3.5310E-03
  26   1.0000E+30  1.0000E+30  1.0000E+30  1.0000E+30  1.0000E+30  1.0000E+30  1.0000E+30  1.0000E+30  1.0000E+30  1.0000E+30
       1.0000E+30  1.0000E+30  1.0000E+30  1.0000E+30  1.0000E+30  1.0000E+30  1.0000E+30  1.0000E+30  1.0000E+30  1.0000E+30
       1.0000E+30  1.0000E+30  1.0000E+30  1.0000E+30  1.0000E+30  1.0000E+30  1.0000E+30  1.0000E+30  4.1307E-03  4.1404E-03
       1.0000E+30  4.1009E-03  4.0350E-03  3.9538E-03  3.8465E-03  3.7985E-03  3.7907E-03  3.7802E-03  3.7515E-03  3.7307E-03
       3.7144E-03  3.7007E-03
  27   1.0000E+30  1.0000E+30  1.0000E+30  1.0000E+30  1.0000E+30  1.0000E+30  1.0000E+30  1.0000E+30  1.0000E+30  1.0000E+30
       1.0000E+30  1.0000E+30  1.0000E+30  1.0000E+30  1.0000E+30  1.0000E+30  1.0000E+30  1.0000E+30  1.0000E+30  1.0000E+30
       1.0000E+30  1.0000E+30  1.0000E+30  1.0000E+30  1.0000E+30  1.0000E+30  1.0000E+30  1.0000E+30  4.1750E-03  4.2317E-03
       4.2872E-03  4.2314E-03  4.1556E-03  4.0652E-03  1.0000E+30  3.9296E-03  3.9515E-03  3.9390E-03  3.9047E-03  3.8837E-03
       3.8665E-03  3.8550E-03
  28   1.0000E+30  1.0000E+30  1.0000E+30  1.0000E+30  1.0000E+30  1.0000E+30  1.0000E+30  1.0000E+30  1.0000E+30  1.0000E+30
       1.0000E+30  1.0000E+30  1.0000E+30  1.0000E+30  1.0000E+30  1.0000E+30  1.0000E+30  1.0000E+30  1.0000E+30  1.0000E+30
       1.0000E+30  1.0000E+30  1.0000E+30  1.0000E+30  1.0000E+30  1.0000E+30  1.0000E+30  1.0000E+30  1.0000E+30  4.3185E-03
       4.3887E-03  4.3339E-03  4.2574E-03  1.0000E+30  1.0000E+30  4.1750E-03  4.1026E-03  4.0822E-03  4.0451E-03  4.0199E-03
       4.0052E-03  3.9967E-03
  29   1.0000E+30  1.0000E+30  1.0000E+30  1.0000E+30  1.0000E+30  1.0000E+30  1.0000E+30  1.0000E+30  1.0000E+30  1.0000E+30
       1.0000E+30  1.0000E+30  1.0000E+30  1.0000E+30  1.0000E+30  1.0000E+30  1.0000E+30  1.0000E+30  1.0000E+30  1.0000E+30
       1.0000E+30  1.0000E+30  1.0000E+30  1.0000E+30  1.0000E+30  1.0000E+30  1.0000E+30  1.0000E+30  1.0000E+30  1.0000E+30
       4.5627E-03  4.5672E-03  1.0000E+30  4.6213E-03  4.5602E-03  4.4334E-03  4.2753E-03  4.2108E-03  4.1732E-03  4.1442E-03
       4.1298E-03  4.1211E-03
  30   1.0000E+30  1.0000E+30  1.0000E+30  1.0000E+30  1.0000E+30  1.0000E+30  1.0000E+30  1.0000E+30  1.0000E+30  1.0000E+30
       1.0000E+30  1.0000E+30  1.0000E+30  1.0000E+30  1.0000E+30  1.0000E+30  1.0000E+30  1.0000E+30  1.0000E+30  1.0000E+30
       1.0000E+30  1.0000E+30  1.0000E+30  1.0000E+30  1.0000E+30  1.0000E+30  1.0000E+30  1.0000E+30  1.0000E+30  1.0000E+30
       4.8088E-03  4.8229E-03  4.8225E-03  4.7021E-03  4.6079E-03  4.4968E-03  4.3767E-03  4.3168E-03  4.2809E-03  4.2527E-03
       4.2363E-03  4.2276E-03
  31   1.0000E+30  1.0000E+30  1.0000E+30  1.0000E+30  1.0000E+30  1.0000E+30  1.0000E+30  1.0000E+30  1.0000E+30  1.0000E+30
       1.0000E+30  1.0000E+30  1.0000E+30  1.0000E+30  1.0000E+30  1.0000E+30  1.0000E+30  1.0000E+30  1.0000E+30  1.0000E+30
       1.0000E+30  1.0000E+30  1.0000E+30  1.0000E+30  1.0000E+30  1.0000E+30  1.0000E+30  1.0000E+30  1.0000E+30  5.1841E-03
       5.0689E-03  5.0009E-03  4.9343E-03  4.7797E-03  4.6643E-03  4.5831E-03  4.4734E-03  4.3983E-03  4.3682E-03  4.3417E-03
       4.3244E-03  4.3158E-03
  32   1.0000E+30  1.0000E+30  1.0000E+30  1.0000E+30  1.0000E+30  1.0000E+30  1.0000E+30  1.0000E+30  1.0000E+30  1.0000E+30
       1.0000E+30  1.0000E+30  1.0000E+30  1.0000E+30  1.0000E+30  1.0000E+30  1.0000E+30  1.0000E+30  1.0000E+30  1.0000E+30
       1.0000E+30  1.0000E+30  1.0000E+30  1.0000E+30  1.0000E+30  1.0000E+30  1.0000E+30  5.4847E-03  5.4458E-03  5.3335E-03
       5.2367E-03  5.1962E-03  5.1454E-03  5.0096E-03  4.8045E-03  4.6912E-03  4.5662E-03  4.4686E-03  4.4403E-03  4.4153E-03
       4.3964E-03  4.3864E-03
  33   1.0000E+30  1.0000E+30  1.0000E+30  1.0000E+30  1.0000E+30  1.0000E+30  1.0000E+30  1.0000E+30  1.0000E+30  1.0000E+30
       1.0000E+30  1.0000E+30  1.0000E+30  1.0000E+30  1.0000E+30  1.0000E+30  1.0000E+30  1.0000E+30  1.0000E+30  1.0000E+30
       1.0000E+30  1.0000E+30  1.0000E+30  1.0000E+30  1.0000E+30  1.0000E+30  5.5617E-03  5.5332E-03  5.4910E-03  5.4396E-03
       5.3777E-03  5.3435E-03  5.3298E-03  5.2849E-03  5.1016E-03  4.9014E-03  4.6640E-03  4.5415E-03  4.4974E-03  4.4737E-03
       4.4532E-03  4.4428E-03
  34   1.0000E+30  1.0000E+30  1.0000E+30  1.0000E+30  1.0000E+30  1.0000E+30  1.0000E+30  1.0000E+30  1.0000E+30  1.0000E+30
       1.0000E+30  1.0000E+30  1.0000E+30  1.0000E+30  1.0000E+30  1.0000E+30  1.0000E+30  1.0000E+30  1.0000E+30  1.0000E+30
       1.0000E+30  1.0000E+30  1.0000E+30  1.0000E+30  1.0000E+30  5.5854E-03  5.5779E-03  5.5652E-03  5.5401E-03  5.5073E-03
       5.4737E-03  5.4350E-03  5.4098E-03  5.3669E-03  5.2869E-03  5.1181E-03  4.7679E-03  4.5830E-03  4.5333E-03  4.5112E-03
       4.4920E-03  4.4811E-03
  35   1.0000E+30  1.0000E+30  1.0000E+30  1.0000E+30  1.0000E+30  1.0000E+30  1.0000E+30  1.0000E+30  1.0000E+30  1.0000E+30
       1.0000E+30  1.0000E+30  1.0000E+30  1.0000E+30  1.0000E+30  1.0000E+30  1.0000E+30  1.0000E+30  1.0000E+30  1.0000E+30
       1.0000E+30  1.0000E+30  1.0000E+30  1.0000E+30  5.5982E-03  5.5946E-03  5.5891E-03  5.5802E-03  5.5669E-03  5.5463E-03
       5.5209E-03  5.4896E-03  5.4544E-03  5.4147E-03  5.3807E-03  1.0000E+30  4.6704E-03  4.6025E-03  4.5467E-03  4.5275E-03
       4.5145E-03  4.5035E-03
  36   1.0000E+30  1.0000E+30  1.0000E+30  1.0000E+30  1.0000E+30  1.0000E+30  1.0000E+30  1.0000E+30  1.0000E+30  1.0000E+30
       1.0000E+30  1.0000E+30  1.0000E+30  1.0000E+30  1.0000E+30  1.0000E+30  1.0000E+30  1.0000E+30  1.0000E+30  1.0000E+30
       1.0000E+30  1.0000E+30  1.0000E+30  1.0000E+30  5.6008E-03  5.5990E-03  5.5979E-03  5.5906E-03  5.5796E-03  5.5635E-03
       5.5409E-03  5.5145E-03  5.4866E-03  5.4427E-03  5.4085E-03  1.0000E+30  1.0000E+30  1.0000E+30  1.0000E+30  4.5286E-03
       4.5207E-03  4.5117E-03
  37   1.0000E+30  1.0000E+30  1.0000E+30  1.0000E+30  1.0000E+30  1.0000E+30  1.0000E+30  1.0000E+30  1.0000E+30  1.0000E+30
       1.0000E+30  1.0000E+30  1.0000E+30  1.0000E+30  1.0000E+30  1.0000E+30  1.0000E+30  1.0000E+30  1.0000E+30  1.0000E+30
       1.0000E+30  1.0000E+30  1.0000E+30  1.0000E+30  1.0000E+30  5.5994E-03  5.5980E-03  5.5933E-03  5.5838E-03  5.5682E-03
       5.5474E-03  5.5244E-03  5.5078E-03  1.0000E+30  1.0000E+30  1.0000E+30  1.0000E+30  1.0000E+30  1.0000E+30  1.0000E+30
       1.0000E+30  1.0000E+30
  38   1.0000E+30  1.0000E+30  1.0000E+30  1.0000E+30  1.0000E+30  1.0000E+30  1.0000E+30  1.0000E+30  1.0000E+30  1.0000E+30
       1.0000E+30  1.0000E+30  1.0000E+30  1.0000E+30  1.0000E+30  1.0000E+30  1.0000E+30  1.0000E+30  1.0000E+30  1.0000E+30
       1.0000E+30  1.0000E+30  1.0000E+30  1.0000E+30  1.0000E+30  1.0000E+30  1.0000E+30  1.0000E+30  1.0000E+30  1.0000E+30
       1.0000E+30  1.0000E+30  1.0000E+30  1.0000E+30  1.0000E+30  1.0000E+30  1.0000E+30  1.0000E+30  1.0000E+30  1.0000E+30
       1.0000E+30  1.0000E+30
1
  HEAD IN LAYER   2 AT END OF TIME STEP   1 IN STRESS PERIOD    1
  ---------------------------------------------------------------------------

            1           2           3           4           5           6           7           8           9          10
           11          12          13          14          15          16          17          18          19          20
           21          22          23          24          25          26          27          28          29          30
           31          32          33          34          35          36          37          38          39          40
           41          42
 ........................................................................................................................
   1   1.0000E+30  1.0000E+30  1.0000E+30  1.0000E+30  1.0000E+30  1.0000E+30  1.0000E+30  1.0000E+30  1.0000E+30  1.0000E+30
       1.0000E+30  1.0000E+30  1.0000E+30  1.0000E+30  1.0000E+30  1.0000E+30  1.0000E+30  1.0000E+30  1.0000E+30  1.0000E+30
       1.0000E+30  1.0000E+30  1.0000E+30  1.0000E+30  1.0000E+30  1.0000E+30  1.0000E+30  1.0000E+30  1.0000E+30  2.6864E-03
       2.6391E-03  2.6095E-03  2.5237E-03  2.4910E-03  2.4299E-03  2.4065E-03  2.3885E-03  2.4042E-03  2.3960E-03  2.4460E-03
       2.3969E-03  2.4440E-03
   2   1.0000E+30  1.0000E+30  1.0000E+30  1.0000E+30  1.0000E+30  1.0000E+30  1.0000E+30  1.0000E+30  1.0000E+30  1.0000E+30
       1.0000E+30  1.0000E+30  1.0000E+30  1.0000E+30  1.0000E+30  1.0000E+30  1.0000E+30  1.0000E+30  1.0000E+30  1.0000E+30
       1.0000E+30  1.0000E+30  1.0000E+30  1.0000E+30  1.0000E+30  1.0000E+30  1.0000E+30  1.0000E+30  2.7476E-03  2.7070E-03
       2.6629E-03  2.6006E-03  2.5654E-03  2.4802E-03  2.4454E-03  2.3996E-03  2.3789E-03  2.3583E-03  2.3740E-03  2.3497E-03
       2.3966E-03  2.3291E-03
   3   1.0000E+30  1.0000E+30  1.0000E+30  1.0000E+30  1.0000E+30  1.0000E+30  1.0000E+30  1.0000E+30  1.0000E+30  1.0000E+30
       1.0000E+30  1.0000E+30  1.0000E+30  1.0000E+30  1.0000E+30  1.0000E+30  1.0000E+30  1.0000E+30  1.0000E+30  1.0000E+30
       1.0000E+30  1.0000E+30  1.0000E+30  1.0000E+30  1.0000E+30  1.0000E+30  1.0000E+30  2.8412E-03  2.7839E-03  2.7285E-03
       2.6822E-03  2.6367E-03  2.5743E-03  2.5179E-03  2.4443E-03  2.3885E-03  2.3305E-03  2.2912E-03  2.2518E-03  2.2764E-03
       2.2244E-03  2.2652E-03
   4   1.0000E+30  1.0000E+30  1.0000E+30  1.0000E+30  1.0000E+30  1.0000E+30  1.0000E+30  1.0000E+30  1.0000E+30  1.0000E+30
       1.0000E+30  1.0000E+30  1.0000E+30  1.0000E+30  1.0000E+30  1.0000E+30  1.0000E+30  1.0000E+30  1.0000E+30  1.0000E+30
       1.0000E+30  1.0000E+30  1.0000E+30  1.0000E+30  1.0000E+30  1.0000E+30  3.0187E-03  2.9279E-03  2.8494E-03  2.7814E-03
       2.7161E-03  2.6668E-03  2.5943E-03  2.5285E-03  2.4315E-03  2.3419E-03  2.2609E-03  2.1717E-03  2.1507E-03  2.0977E-03
       2.1159E-03  2.0892E-03
   5   1.0000E+30  1.0000E+30  1.0000E+30  1.0000E+30  1.0000E+30  1.0000E+30  1.0000E+30  1.0000E+30  1.0000E+30  1.0000E+30
       1.0000E+30  1.0000E+30  1.0000E+30  1.0000E+30  1.0000E+30  1.0000E+30  1.0000E+30  1.0000E+30  1.0000E+30  1.0000E+30
       1.0000E+30  1.0000E+30  1.0000E+30  1.0000E+30  3.2016E-03  3.1779E-03  3.1019E-03  3.0171E-03  2.9205E-03  2.8356E-03
       2.7587E-03  2.6835E-03  2.6109E-03  2.5004E-03  2.3926E-03  2.2851E-03  2.1669E-03  2.0793E-03  2.0065E-03  1.9615E-03
       1.9538E-03  1.9213E-03
   6   1.0000E+30  1.0000E+30  1.0000E+30  1.0000E+30  1.0000E+30  1.0000E+30  1.0000E+30  1.0000E+30  1.0000E+30  1.0000E+30
       1.0000E+30  1.0000E+30  1.0000E+30  1.0000E+30  1.0000E+30  1.0000E+30  1.0000E+30  1.0000E+30  1.0000E+30  1.0000E+30
       1.0000E+30  1.0000E+30  1.0000E+30  3.1901E-03  3.2225E-03  3.2159E-03  3.1707E-03  3.0871E-03  2.9950E-03  2.8878E-03
       2.8001E-03  2.6948E-03  2.5894E-03  2.4621E-03  2.3393E-03  2.2225E-03  2.0683E-03  1.9765E-03  1.8657E-03  1.8288E-03
       1.7602E-03  1.7621E-03
   7   1.0000E+30  1.0000E+30  1.0000E+30  1.0000E+30  1.0000E+30  1.0000E+30  1.0000E+30  1.0000E+30  1.0000E+30  1.0000E+30
       1.0000E+30  1.0000E+30  1.0000E+30  1.0000E+30  1.0000E+30  1.0000E+30  1.0000E+30  1.0000E+30  1.0000E+30  1.0000E+30
       1.0000E+30  1.0000E+30  3.1590E-03  3.1935E-03  3.2291E-03  3.2380E-03  3.2014E-03  3.1360E-03  3.0404E-03  2.9406E-03
       2.8164E-03  2.7025E-03  2.5581E-03  2.4260E-03  2.2795E-03  2.1163E-03  1.9933E-03  1.8527E-03  1.7488E-03  1.6352E-03
       1.5683E-03  1.5368E-03
   8   1.0000E+30  1.0000E+30  1.0000E+30  1.0000E+30  1.0000E+30  1.0000E+30  1.0000E+30  1.0000E+30  1.0000E+30  1.0000E+30
       1.0000E+30  1.0000E+30  1.0000E+30  1.0000E+30  1.0000E+30  1.0000E+30  1.0000E+30  1.0000E+30  1.0000E+30  1.0000E+30
       1.0000E+30  3.0806E-03  3.1271E-03  3.1770E-03  3.2124E-03  3.2256E-03  3.2069E-03  3.1467E-03  3.0633E-03  2.9545E-03
       2.8388E-03  2.6939E-03  2.5416E-03  2.3631E-03  2.2173E-03  2.0458E-03  1.8908E-03  1.7257E-03  1.5734E-03  1.4486E-03
       1.3425E-03  1.2882E-03
   9   1.0000E+30  1.0000E+30  1.0000E+30  1.0000E+30  1.0000E+30  1.0000E+30  1.0000E+30  1.0000E+30  1.0000E+30  1.0000E+30
       1.0000E+30  1.0000E+30  1.0000E+30  1.0000E+30  1.0000E+30  1.0000E+30  1.0000E+30  1.0000E+30  1.0000E+30  1.0000E+30
       2.9985E-03  3.0361E-03  3.0864E-03  3.1360E-03  3.1730E-03  3.1946E-03  3.1721E-03  3.1243E-03  3.0513E-03  2.9575E-03
       2.8343E-03  2.6776E-03  2.5028E-03  2.3344E-03  2.1484E-03  1.9778E-03  1.7752E-03  1.6152E-03  1.4353E-03  1.2309E-03
       1.0702E-03  1.0391E-03
  10   1.0000E+30  1.0000E+30  1.0000E+30  1.0000E+30  1.0000E+30  1.0000E+30  1.0000E+30  1.0000E+30  1.0000E+30  1.0000E+30
       1.0000E+30  1.0000E+30  1.0000E+30  1.0000E+30  1.0000E+30  1.0000E+30  1.0000E+30  1.0000E+30  1.0000E+30  1.0000E+30
       1.0000E+30  2.9756E-03  3.0298E-03  3.0828E-03  3.1171E-03  3.1276E-03  3.1049E-03  3.0734E-03  3.0131E-03  2.9269E-03
       2.8079E-03  2.6542E-03  2.4753E-03  2.2887E-03  2.1111E-03  1.9097E-03  1.7347E-03  1.5234E-03  1.2939E-03  1.0188E-03
       7.1023E-04  7.5178E-04
  11   1.0000E+30  1.0000E+30  1.0000E+30  1.0000E+30  1.0000E+30  1.0000E+30  1.0000E+30  1.0000E+30  1.0000E+30  1.0000E+30
       1.0000E+30  1.0000E+30  1.0000E+30  1.0000E+30  1.0000E+30  1.0000E+30  1.0000E+30  1.0000E+30  1.0000E+30  1.0000E+30
       1.0000E+30  1.0000E+30  1.0000E+30  3.0044E-03  3.0343E-03  3.0460E-03  3.0257E-03  2.9957E-03  2.9485E-03  2.8794E-03
       2.7655E-03  2.6198E-03  2.4445E-03  2.2668E-03  2.0803E-03  1.8983E-03  1.6964E-03  1.4938E-03  1.2381E-03  8.3348E-04
       1.6265E-05  5.2165E-04
  12   1.0000E+30  1.0000E+30  1.0000E+30  1.0000E+30  1.0000E+30  1.0000E+30  1.0000E+30  1.0000E+30  1.0000E+30  1.0000E+30
       1.0000E+30  1.0000E+30  1.0000E+30  1.0000E+30  1.0000E+30  1.0000E+30  1.0000E+30  1.0000E+30  1.0000E+30  1.0000E+30
       1.0000E+30  1.0000E+30  1.0000E+30  1.0000E+30  1.0000E+30  1.0000E+30  2.9245E-03  2.9050E-03  2.8779E-03  2.8173E-03
       2.7189E-03  2.5820E-03  2.4205E-03  2.2519E-03  2.0827E-03  1.9065E-03  1.7326E-03  1.5414E-03  1.3240E-03  1.0448E-03
       7.5128E-04  7.8521E-04
  13   1.0000E+30  1.0000E+30  1.0000E+30  1.0000E+30  1.0000E+30  1.0000E+30  1.0000E+30  1.0000E+30  1.0000E+30  1.0000E+30
       1.0000E+30  1.0000E+30  1.0000E+30  1.0000E+30  1.0000E+30  1.0000E+30  1.0000E+30  1.0000E+30  1.0000E+30  1.0000E+30
       1.0000E+30  1.0000E+30  1.0000E+30  1.0000E+30  1.0000E+30  1.0000E+30  2.8224E-03  2.8180E-03  2.7991E-03  2.7477E-03
       2.6655E-03  2.5419E-03  2.3982E-03  2.2477E-03  2.0913E-03  1.9421E-03  1.7804E-03  1.6203E-03  1.4674E-03  1.2911E-03
       1.1260E-03  1.0852E-03
  14   1.0000E+30  1.0000E+30  1.0000E+30  1.0000E+30  1.0000E+30  1.0000E+30  1.0000E+30  1.0000E+30  1.0000E+30  1.0000E+30
       1.0000E+30  1.0000E+30  1.0000E+30  1.0000E+30  1.0000E+30  1.0000E+30  1.0000E+30  1.0000E+30  1.0000E+30  1.0000E+30
       1.0000E+30  1.0000E+30  1.0000E+30  1.0000E+30  1.0000E+30  1.0000E+30  1.0000E+30  2.7322E-03  2.7193E-03  2.6823E-03
       2.6049E-03  2.5041E-03  2.3747E-03  2.2403E-03  2.1080E-03  1.9725E-03  1.8527E-03  1.7209E-03  1.5923E-03  1.4759E-03
       1.3803E-03  1.3387E-03
  15   1.0000E+30  1.0000E+30  1.0000E+30  1.0000E+30  1.0000E+30  1.0000E+30  1.0000E+30  1.0000E+30  1.0000E+30  1.0000E+30
       1.0000E+30  1.0000E+30  1.0000E+30  1.0000E+30  1.0000E+30  1.0000E+30  1.0000E+30  1.0000E+30  1.0000E+30  1.0000E+30
       1.0000E+30  1.0000E+30  1.0000E+30  1.0000E+30  1.0000E+30  1.0000E+30  1.0000E+30  1.0000E+30  2.6428E-03  2.6147E-03
       2.5499E-03  2.4571E-03  2.3473E-03  2.2339E-03  2.1177E-03  2.0053E-03  1.9008E-03  1.8056E-03  1.7138E-03  1.6363E-03
       1.5593E-03  1.5282E-03
  16   1.0000E+30  1.0000E+30  1.0000E+30  1.0000E+30  1.0000E+30  1.0000E+30  1.0000E+30  1.0000E+30  1.0000E+30  1.0000E+30
       1.0000E+30  1.0000E+30  1.0000E+30  1.0000E+30  1.0000E+30  1.0000E+30  1.0000E+30  1.0000E+30  1.0000E+30  1.0000E+30
       1.0000E+30  1.0000E+30  1.0000E+30  1.0000E+30  1.0000E+30  1.0000E+30  1.0000E+30  1.0000E+30  1.0000E+30  1.0000E+30
       2.4968E-03  2.4197E-03  2.3283E-03  2.2270E-03  2.1325E-03  2.0347E-03  1.9485E-03  1.8783E-03  1.8112E-03  1.7522E-03
       1.7123E-03  1.6813E-03
  17   1.0000E+30  1.0000E+30  1.0000E+30  1.0000E+30  1.0000E+30  1.0000E+30  1.0000E+30  1.0000E+30  1.0000E+30  1.0000E+30
       1.0000E+30  1.0000E+30  1.0000E+30  1.0000E+30  1.0000E+30  1.0000E+30  1.0000E+30  1.0000E+30  1.0000E+30  1.0000E+30
       1.0000E+30  1.0000E+30  1.0000E+30  1.0000E+30  1.0000E+30  1.0000E+30  1.0000E+30  1.0000E+30  1.0000E+30  1.0000E+30
       1.0000E+30  1.0000E+30  1.0000E+30  1.0000E+30  1.0000E+30  2.0631E-03  2.0035E-03  1.9405E-03  1.8966E-03  1.8545E-03
       1.8236E-03  1.8127E-03
  18   1.0000E+30  1.0000E+30  1.0000E+30  1.0000E+30  1.0000E+30  1.0000E+30  1.0000E+30  1.0000E+30  1.0000E+30  1.0000E+30
       1.0000E+30  1.0000E+30  1.0000E+30  1.0000E+30  1.0000E+30  1.0000E+30  1.0000E+30  1.0000E+30  1.0000E+30  1.0000E+30
       1.0000E+30  1.0000E+30  1.0000E+30  1.0000E+30  1.0000E+30  1.0000E+30  1.0000E+30  1.0000E+30  1.0000E+30  1.0000E+30
       1.0000E+30  1.0000E+30  1.0000E+30  1.0000E+30  1.0000E+30  1.0000E+30  1.0000E+30  2.0117E-03  1.9695E-03  1.9447E-03
       1.9254E-03  1.9068E-03
  19   1.0000E+30  1.0000E+30  1.0000E+30  1.0000E+30  1.0000E+30  1.0000E+30  1.0000E+30  1.0000E+30  1.0000E+30  1.0000E+30
       1.0000E+30  1.0000E+30  1.0000E+30  1.0000E+30  1.0000E+30  1.0000E+30  1.0000E+30  1.0000E+30  1.0000E+30  1.0000E+30
       1.0000E+30  1.0000E+30  1.0000E+30  1.0000E+30  1.0000E+30  1.0000E+30  1.0000E+30  1.0000E+30  1.0000E+30  1.0000E+30
       1.0000E+30  1.0000E+30  1.0000E+30  1.0000E+30  1.0000E+30  1.0000E+30  1.0000E+30  1.0000E+30  1.0000E+30  1.0000E+30
       1.0000E+30  1.0000E+30
  20   1.0000E+30  1.0000E+30  1.0000E+30  1.0000E+30  1.0000E+30  1.0000E+30  1.0000E+30  1.0000E+30  1.0000E+30  1.0000E+30
       1.0000E+30  1.0000E+30  1.0000E+30  1.0000E+30  1.0000E+30  1.0000E+30  1.0000E+30  1.0000E+30  1.0000E+30  1.0000E+30
       1.0000E+30  1.0000E+30  1.0000E+30  1.0000E+30  1.0000E+30  1.0000E+30  1.0000E+30  1.0000E+30  1.0000E+30  1.0000E+30
       1.0000E+30  1.0000E+30  1.0000E+30  1.0000E+30  1.0000E+30  1.0000E+30  1.0000E+30  1.0000E+30  1.0000E+30  1.0000E+30
       1.0000E+30  1.0000E+30
  21   1.0000E+30  1.0000E+30  1.0000E+30  1.0000E+30  1.0000E+30  1.0000E+30  1.0000E+30  1.0000E+30  1.0000E+30  1.0000E+30
       1.0000E+30  1.0000E+30  1.0000E+30  1.0000E+30  1.0000E+30  1.0000E+30  1.0000E+30  1.0000E+30  1.0000E+30  1.0000E+30
       1.0000E+30  1.0000E+30  1.0000E+30  1.0000E+30  1.0000E+30  1.0000E+30  1.0000E+30  1.0000E+30  1.0000E+30  1.0000E+30
       1.0000E+30  1.0000E+30  1.0000E+30  1.0000E+30  1.0000E+30  1.0000E+30  1.0000E+30  1.0000E+30  1.0000E+30  1.0000E+30
       1.0000E+30  1.0000E+30
  22   1.0000E+30  1.0000E+30  1.0000E+30  1.0000E+30  1.0000E+30  1.0000E+30  1.0000E+30  1.0000E+30  1.0000E+30  1.0000E+30
       1.0000E+30  1.0000E+30  1.0000E+30  1.0000E+30  1.0000E+30  1.0000E+30  1.0000E+30  1.0000E+30  1.0000E+30  1.0000E+30
       1.0000E+30  1.0000E+30  1.0000E+30  1.0000E+30  1.0000E+30  1.0000E+30  1.0000E+30  1.0000E+30  1.0000E+30  1.0000E+30
       1.0000E+30  1.0000E+30  1.0000E+30  1.0000E+30  1.0000E+30  1.0000E+30  1.0000E+30  1.0000E+30  1.0000E+30  1.0000E+30
       1.0000E+30  1.0000E+30
  23   1.0000E+30  1.0000E+30  1.0000E+30  1.0000E+30  1.0000E+30  1.0000E+30  1.0000E+30  1.0000E+30  1.0000E+30  1.0000E+30
       1.0000E+30  1.0000E+30  1.0000E+30  1.0000E+30  1.0000E+30  1.0000E+30  1.0000E+30  1.0000E+30  1.0000E+30  1.0000E+30
       1.0000E+30  1.0000E+30  1.0000E+30  1.0000E+30  1.0000E+30  1.0000E+30  1.0000E+30  1.0000E+30  1.0000E+30  1.0000E+30
       1.0000E+30  1.0000E+30  1.0000E+30  1.0000E+30  1.0000E+30  1.0000E+30  1.0000E+30  1.0000E+30  1.0000E+30  1.0000E+30
       1.0000E+30  1.0000E+30
  24   1.0000E+30  1.0000E+30  1.0000E+30  1.0000E+30  1.0000E+30  1.0000E+30  1.0000E+30  1.0000E+30  1.0000E+30  1.0000E+30
       1.0000E+30  1.0000E+30  1.0000E+30  1.0000E+30  1.0000E+30  1.0000E+30  1.0000E+30  1.0000E+30  1.0000E+30  1.0000E+30
       1.0000E+30  1.0000E+30  1.0000E+30  1.0000E+30  1.0000E+30  1.0000E+30  1.0000E+30  1.0000E+30  1.0000E+30  1.0000E+30
       1.0000E+30  1.0000E+30  1.0000E+30  1.0000E+30  1.0000E+30  1.0000E+30  1.0000E+30  1.0000E+30  1.0000E+30  1.0000E+30
       1.0000E+30  1.0000E+30
  25   1.0000E+30  1.0000E+30  1.0000E+30  1.0000E+30  1.0000E+30  1.0000E+30  1.0000E+30  1.0000E+30  1.0000E+30  1.0000E+30
       1.0000E+30  1.0000E+30  1.0000E+30  1.0000E+30  1.0000E+30  1.0000E+30  1.0000E+30  1.0000E+30  1.0000E+30  1.0000E+30
       1.0000E+30  1.0000E+30  1.0000E+30  1.0000E+30  1.0000E+30  1.0000E+30  1.0000E+30  1.0000E+30  1.0000E+30  1.0000E+30
       1.0000E+30  1.0000E+30  1.0000E+30  1.0000E+30  1.0000E+30  1.0000E+30  1.0000E+30  1.0000E+30  1.0000E+30  1.0000E+30
       1.0000E+30  1.0000E+30
  26   1.0000E+30  1.0000E+30  1.0000E+30  1.0000E+30  1.0000E+30  1.0000E+30  1.0000E+30  1.0000E+30  1.0000E+30  1.0000E+30
       1.0000E+30  1.0000E+30  1.0000E+30  1.0000E+30  1.0000E+30  1.0000E+30  1.0000E+30  1.0000E+30  1.0000E+30  1.0000E+30
       1.0000E+30  1.0000E+30  1.0000E+30  1.0000E+30  1.0000E+30  1.0000E+30  1.0000E+30  1.0000E+30  1.0000E+30  1.0000E+30
       1.0000E+30  1.0000E+30  1.0000E+30  1.0000E+30  1.0000E+30  1.0000E+30  1.0000E+30  1.0000E+30  1.0000E+30  1.0000E+30
       1.0000E+30  1.0000E+30
  27   1.0000E+30  1.0000E+30  1.0000E+30  1.0000E+30  1.0000E+30  1.0000E+30  1.0000E+30  1.0000E+30  1.0000E+30  1.0000E+30
       1.0000E+30  1.0000E+30  1.0000E+30  1.0000E+30  1.0000E+30  1.0000E+30  1.0000E+30  1.0000E+30  1.0000E+30  1.0000E+30
       1.0000E+30  1.0000E+30  1.0000E+30  1.0000E+30  1.0000E+30  1.0000E+30  1.0000E+30  1.0000E+30  1.0000E+30  1.0000E+30
       1.0000E+30  1.0000E+30  1.0000E+30  1.0000E+30  1.0000E+30  1.0000E+30  1.0000E+30  1.0000E+30  1.0000E+30  1.0000E+30
       1.0000E+30  1.0000E+30
  28   1.0000E+30  1.0000E+30  1.0000E+30  1.0000E+30  1.0000E+30  1.0000E+30  1.0000E+30  1.0000E+30  1.0000E+30  1.0000E+30
       1.0000E+30  1.0000E+30  1.0000E+30  1.0000E+30  1.0000E+30  1.0000E+30  1.0000E+30  1.0000E+30  1.0000E+30  1.0000E+30
       1.0000E+30  1.0000E+30  1.0000E+30  1.0000E+30  1.0000E+30  1.0000E+30  1.0000E+30  1.0000E+30  1.0000E+30  1.0000E+30
       1.0000E+30  1.0000E+30  1.0000E+30  1.0000E+30  1.0000E+30  1.0000E+30  1.0000E+30  1.0000E+30  1.0000E+30  1.0000E+30
       1.0000E+30  1.0000E+30
  29   1.0000E+30  1.0000E+30  1.0000E+30  1.0000E+30  1.0000E+30  1.0000E+30  1.0000E+30  1.0000E+30  1.0000E+30  1.0000E+30
       1.0000E+30  1.0000E+30  1.0000E+30  1.0000E+30  1.0000E+30  1.0000E+30  1.0000E+30  1.0000E+30  1.0000E+30  1.0000E+30
       1.0000E+30  1.0000E+30  1.0000E+30  1.0000E+30  1.0000E+30  1.0000E+30  1.0000E+30  1.0000E+30  1.0000E+30  1.0000E+30
       1.0000E+30  1.0000E+30  1.0000E+30  1.0000E+30  1.0000E+30  1.0000E+30  1.0000E+30  1.0000E+30  1.0000E+30  1.0000E+30
       1.0000E+30  1.0000E+30
  30   1.0000E+30  1.0000E+30  1.0000E+30  1.0000E+30  1.0000E+30  1.0000E+30  1.0000E+30  1.0000E+30  1.0000E+30  1.0000E+30
       1.0000E+30  1.0000E+30  1.0000E+30  1.0000E+30  1.0000E+30  1.0000E+30  1.0000E+30  1.0000E+30  1.0000E+30  1.0000E+30
       1.0000E+30  1.0000E+30  1.0000E+30  1.0000E+30  1.0000E+30  1.0000E+30  1.0000E+30  1.0000E+30  1.0000E+30  1.0000E+30
       1.0000E+30  1.0000E+30  1.0000E+30  1.0000E+30  1.0000E+30  1.0000E+30  1.0000E+30  1.0000E+30  1.0000E+30  1.0000E+30
       1.0000E+30  1.0000E+30
  31   1.0000E+30  1.0000E+30  1.0000E+30  1.0000E+30  1.0000E+30  1.0000E+30  1.0000E+30  1.0000E+30  1.0000E+30  1.0000E+30
       1.0000E+30  1.0000E+30  1.0000E+30  1.0000E+30  1.0000E+30  1.0000E+30  1.0000E+30  1.0000E+30  1.0000E+30  1.0000E+30
       1.0000E+30  1.0000E+30  1.0000E+30  1.0000E+30  1.0000E+30  1.0000E+30  1.0000E+30  1.0000E+30  1.0000E+30  1.0000E+30
       1.0000E+30  1.0000E+30  1.0000E+30  1.0000E+30  1.0000E+30  1.0000E+30  1.0000E+30  1.0000E+30  1.0000E+30  1.0000E+30
       1.0000E+30  1.0000E+30
  32   1.0000E+30  1.0000E+30  1.0000E+30  1.0000E+30  1.0000E+30  1.0000E+30  1.0000E+30  1.0000E+30  1.0000E+30  1.0000E+30
       1.0000E+30  1.0000E+30  1.0000E+30  1.0000E+30  1.0000E+30  1.0000E+30  1.0000E+30  1.0000E+30  1.0000E+30  1.0000E+30
       1.0000E+30  1.0000E+30  1.0000E+30  1.0000E+30  1.0000E+30  1.0000E+30  1.0000E+30  1.0000E+30  1.0000E+30  1.0000E+30
       1.0000E+30  1.0000E+30  1.0000E+30  1.0000E+30  1.0000E+30  1.0000E+30  1.0000E+30  1.0000E+30  1.0000E+30  1.0000E+30
       1.0000E+30  1.0000E+30
  33   1.0000E+30  1.0000E+30  1.0000E+30  1.0000E+30  1.0000E+30  1.0000E+30  1.0000E+30  1.0000E+30  1.0000E+30  1.0000E+30
       1.0000E+30  1.0000E+30  1.0000E+30  1.0000E+30  1.0000E+30  1.0000E+30  1.0000E+30  1.0000E+30  1.0000E+30  1.0000E+30
       1.0000E+30  1.0000E+30  1.0000E+30  1.0000E+30  1.0000E+30  1.0000E+30  1.0000E+30  1.0000E+30  1.0000E+30  1.0000E+30
       1.0000E+30  1.0000E+30  1.0000E+30  1.0000E+30  1.0000E+30  1.0000E+30  1.0000E+30  1.0000E+30  1.0000E+30  1.0000E+30
       1.0000E+30  1.0000E+30
  34   1.0000E+30  1.0000E+30  1.0000E+30  1.0000E+30  1.0000E+30  1.0000E+30  1.0000E+30  1.0000E+30  1.0000E+30  1.0000E+30
       1.0000E+30  1.0000E+30  1.0000E+30  1.0000E+30  1.0000E+30  1.0000E+30  1.0000E+30  1.0000E+30  1.0000E+30  1.0000E+30
       1.0000E+30  1.0000E+30  1.0000E+30  1.0000E+30  1.0000E+30  1.0000E+30  1.0000E+30  1.0000E+30  1.0000E+30  1.0000E+30
       1.0000E+30  1.0000E+30  1.0000E+30  1.0000E+30  1.0000E+30  1.0000E+30  1.0000E+30  1.0000E+30  1.0000E+30  1.0000E+30
       1.0000E+30  1.0000E+30
  35   1.0000E+30  1.0000E+30  1.0000E+30  1.0000E+30  1.0000E+30  1.0000E+30  1.0000E+30  1.0000E+30  1.0000E+30  1.0000E+30
       1.0000E+30  1.0000E+30  1.0000E+30  1.0000E+30  1.0000E+30  1.0000E+30  1.0000E+30  1.0000E+30  1.0000E+30  1.0000E+30
       1.0000E+30  1.0000E+30  1.0000E+30  1.0000E+30  1.0000E+30  1.0000E+30  1.0000E+30  1.0000E+30  1.0000E+30  1.0000E+30
       1.0000E+30  1.0000E+30  1.0000E+30  1.0000E+30  1.0000E+30  1.0000E+30  1.0000E+30  1.0000E+30  1.0000E+30  1.0000E+30
       1.0000E+30  1.0000E+30
  36   1.0000E+30  1.0000E+30  1.0000E+30  1.0000E+30  1.0000E+30  1.0000E+30  1.0000E+30  1.0000E+30  1.0000E+30  1.0000E+30
       1.0000E+30  1.0000E+30  1.0000E+30  1.0000E+30  1.0000E+30  1.0000E+30  1.0000E+30  1.0000E+30  1.0000E+30  1.0000E+30
       1.0000E+30  1.0000E+30  1.0000E+30  1.0000E+30  1.0000E+30  1.0000E+30  1.0000E+30  1.0000E+30  1.0000E+30  1.0000E+30
       1.0000E+30  1.0000E+30  1.0000E+30  1.0000E+30  1.0000E+30  1.0000E+30  1.0000E+30  1.0000E+30  1.0000E+30  1.0000E+30
       1.0000E+30  1.0000E+30
  37   1.0000E+30  1.0000E+30  1.0000E+30  1.0000E+30  1.0000E+30  1.0000E+30  1.0000E+30  1.0000E+30  1.0000E+30  1.0000E+30
       1.0000E+30  1.0000E+30  1.0000E+30  1.0000E+30  1.0000E+30  1.0000E+30  1.0000E+30  1.0000E+30  1.0000E+30  1.0000E+30
       1.0000E+30  1.0000E+30  1.0000E+30  1.0000E+30  1.0000E+30  1.0000E+30  1.0000E+30  1.0000E+30  1.0000E+30  1.0000E+30
       1.0000E+30  1.0000E+30  1.0000E+30  1.0000E+30  1.0000E+30  1.0000E+30  1.0000E+30  1.0000E+30  1.0000E+30  1.0000E+30
       1.0000E+30  1.0000E+30
  38   1.0000E+30  1.0000E+30  1.0000E+30  1.0000E+30  1.0000E+30  1.0000E+30  1.0000E+30  1.0000E+30  1.0000E+30  1.0000E+30
       1.0000E+30  1.0000E+30  1.0000E+30  1.0000E+30  1.0000E+30  1.0000E+30  1.0000E+30  1.0000E+30  1.0000E+30  1.0000E+30
       1.0000E+30  1.0000E+30  1.0000E+30  1.0000E+30  1.0000E+30  1.0000E+30  1.0000E+30  1.0000E+30  1.0000E+30  1.0000E+30
       1.0000E+30  1.0000E+30  1.0000E+30  1.0000E+30  1.0000E+30  1.0000E+30  1.0000E+30  1.0000E+30  1.0000E+30  1.0000E+30
       1.0000E+30  1.0000E+30
1
  HEAD IN LAYER   3 AT END OF TIME STEP   1 IN STRESS PERIOD    1
  ---------------------------------------------------------------------------

            1           2           3           4           5           6           7           8           9          10
           11          12          13          14          15          16          17          18          19          20
           21          22          23          24          25          26          27          28          29          30
           31          32          33          34          35          36          37          38          39          40
           41          42
 ........................................................................................................................
   1   1.0000E+30  1.0000E+30  1.0000E+30  1.0000E+30  1.0000E+30  1.0000E+30  1.0000E+30  1.0000E+30  1.0000E+30  1.0000E+30
       1.0000E+30  1.0000E+30  1.0000E+30  1.0000E+30  1.0000E+30  1.0000E+30  1.0000E+30  1.0000E+30  1.0000E+30  1.0000E+30
       1.0000E+30  1.0000E+30  1.0000E+30  1.0000E+30  1.0000E+30  1.0000E+30  1.0000E+30  1.0000E+30  2.7203E-03  2.6864E-03
       2.6391E-03  2.6095E-03  2.5237E-03  2.4910E-03  2.4299E-03  2.4066E-03  2.3884E-03  2.4043E-03  2.3960E-03  2.4460E-03
       2.3968E-03  2.4440E-03
   2   1.0000E+30  1.0000E+30  1.0000E+30  1.0000E+30  1.0000E+30  1.0000E+30  1.0000E+30  1.0000E+30  1.0000E+30  1.0000E+30
       1.0000E+30  1.0000E+30  1.0000E+30  1.0000E+30  1.0000E+30  1.0000E+30  1.0000E+30  1.0000E+30  1.0000E+30  1.0000E+30
       1.0000E+30  1.0000E+30  1.0000E+30  1.0000E+30  1.0000E+30  1.0000E+30  1.0000E+30  2.7789E-03  2.7476E-03  2.7070E-03
       2.6629E-03  2.6006E-03  2.5654E-03  2.4802E-03  2.4454E-03  2.3996E-03  2.3789E-03  2.3583E-03  2.3740E-03  2.3496E-03
       2.3966E-03  2.3291E-03
   3   1.0000E+30  1.0000E+30  1.0000E+30  1.0000E+30  1.0000E+30  1.0000E+30  1.0000E+30  1.0000E+30  1.0000E+30  1.0000E+30
       1.0000E+30  1.0000E+30  1.0000E+30  1.0000E+30  1.0000E+30  1.0000E+30  1.0000E+30  1.0000E+30  1.0000E+30  1.0000E+30
       1.0000E+30  1.0000E+30  1.0000E+30  1.0000E+30  1.0000E+30  1.0000E+30  1.0000E+30  2.8412E-03  2.7838E-03  2.7285E-03
       2.6822E-03  2.6367E-03  2.5743E-03  2.5179E-03  2.4444E-03  2.3885E-03  2.3305E-03  2.2912E-03  2.2517E-03  2.2765E-03
       2.2244E-03  2.2652E-03
   4   1.0000E+30  1.0000E+30  1.0000E+30  1.0000E+30  1.0000E+30  1.0000E+30  1.0000E+30  1.0000E+30  1.0000E+30  1.0000E+30
       1.0000E+30  1.0000E+30  1.0000E+30  1.0000E+30  1.0000E+30  1.0000E+30  1.0000E+30  1.0000E+30  1.0000E+30  1.0000E+30
       1.0000E+30  1.0000E+30  1.0000E+30  1.0000E+30  1.0000E+30  1.0000E+30  3.0187E-03  2.9279E-03  2.8494E-03  2.7814E-03
       2.7161E-03  2.6668E-03  2.5943E-03  2.5285E-03  2.4315E-03  2.3419E-03  2.2609E-03  2.1716E-03  2.1507E-03  2.0978E-03
       2.1159E-03  2.0892E-03
   5   1.0000E+30  1.0000E+30  1.0000E+30  1.0000E+30  1.0000E+30  1.0000E+30  1.0000E+30  1.0000E+30  1.0000E+30  1.0000E+30
       1.0000E+30  1.0000E+30  1.0000E+30  1.0000E+30  1.0000E+30  1.0000E+30  1.0000E+30  1.0000E+30  1.0000E+30  1.0000E+30
       1.0000E+30  1.0000E+30  1.0000E+30  1.0000E+30  3.2016E-03  3.1779E-03  3.1019E-03  3.0171E-03  2.9205E-03  2.8356E-03
       2.7588E-03  2.6836E-03  2.6109E-03  2.5004E-03  2.3926E-03  2.2851E-03  2.1670E-03  2.0793E-03  2.0066E-03  1.9614E-03
       1.9539E-03  1.9213E-03
   6   1.0000E+30  1.0000E+30  1.0000E+30  1.0000E+30  1.0000E+30  1.0000E+30  1.0000E+30  1.0000E+30  1.0000E+30  1.0000E+30
       1.0000E+30  1.0000E+30  1.0000E+30  1.0000E+30  1.0000E+30  1.0000E+30  1.0000E+30  1.0000E+30  1.0000E+30  1.0000E+30
       1.0000E+30  1.0000E+30  1.0000E+30  3.1901E-03  3.2225E-03  3.2159E-03  3.1707E-03  3.0871E-03  2.9950E-03  2.8878E-03
       2.8001E-03  2.6948E-03  2.5894E-03  2.4621E-03  2.3393E-03  2.2226E-03  2.0682E-03  1.9765E-03  1.8656E-03  1.8288E-03
       1.7602E-03  1.7621E-03
   7   1.0000E+30  1.0000E+30  1.0000E+30  1.0000E+30  1.0000E+30  1.0000E+30  1.0000E+30  1.0000E+30  1.0000E+30  1.0000E+30
       1.0000E+30  1.0000E+30  1.0000E+30  1.0000E+30  1.0000E+30  1.0000E+30  1.0000E+30  1.0000E+30  1.0000E+30  1.0000E+30
       1.0000E+30  1.0000E+30  3.1590E-03  3.1935E-03  3.2291E-03  3.2380E-03  3.2014E-03  3.1360E-03  3.0404E-03  2.9406E-03
       2.8164E-03  2.7025E-03  2.5581E-03  2.4260E-03  2.2795E-03  2.1163E-03  1.9933E-03  1.8528E-03  1.7489E-03  1.6352E-03
       1.5682E-03  1.5368E-03
   8   1.0000E+30  1.0000E+30  1.0000E+30  1.0000E+30  1.0000E+30  1.0000E+30  1.0000E+30  1.0000E+30  1.0000E+30  1.0000E+30
       1.0000E+30  1.0000E+30  1.0000E+30  1.0000E+30  1.0000E+30  1.0000E+30  1.0000E+30  1.0000E+30  1.0000E+30  1.0000E+30
       1.0000E+30  3.0806E-03  3.1271E-03  3.1770E-03  3.2124E-03  3.2256E-03  3.2069E-03  3.1467E-03  3.0633E-03  2.9545E-03
       2.8388E-03  2.6939E-03  2.5416E-03  2.3631E-03  2.2173E-03  2.0458E-03  1.8909E-03  1.7258E-03  1.5733E-03  1.4486E-03
       1.3424E-03  1.2882E-03
   9   1.0000E+30  1.0000E+30  1.0000E+30  1.0000E+30  1.0000E+30  1.0000E+30  1.0000E+30  1.0000E+30  1.0000E+30  1.0000E+30
       1.0000E+30  1.0000E+30  1.0000E+30  1.0000E+30  1.0000E+30  1.0000E+30  1.0000E+30  1.0000E+30  1.0000E+30  1.0000E+30
       2.9985E-03  3.0361E-03  3.0864E-03  3.1360E-03  3.1730E-03  3.1946E-03  3.1721E-03  3.1243E-03  3.0513E-03  2.9575E-03
       2.8343E-03  2.6776E-03  2.5028E-03  2.3344E-03  2.1484E-03  1.9778E-03  1.7752E-03  1.6152E-03  1.4353E-03  1.2310E-03
       1.0702E-03  1.0392E-03
  10   1.0000E+30  1.0000E+30  1.0000E+30  1.0000E+30  1.0000E+30  1.0000E+30  1.0000E+30  1.0000E+30  1.0000E+30  1.0000E+30
       1.0000E+30  1.0000E+30  1.0000E+30  1.0000E+30  1.0000E+30  1.0000E+30  1.0000E+30  1.0000E+30  1.0000E+30  1.0000E+30
       1.0000E+30  2.9756E-03  3.0298E-03  3.0828E-03  3.1171E-03  3.1276E-03  3.1049E-03  3.0734E-03  3.0131E-03  2.9269E-03
       2.8079E-03  2.6542E-03  2.4753E-03  2.2887E-03  2.1111E-03  1.9097E-03  1.7347E-03  1.5235E-03  1.2940E-03  1.0188E-03
       7.1007E-04  7.5174E-04
  11   1.0000E+30  1.0000E+30  1.0000E+30  1.0000E+30  1.0000E+30  1.0000E+30  1.0000E+30  1.0000E+30  1.0000E+30  1.0000E+30
       1.0000E+30  1.0000E+30  1.0000E+30  1.0000E+30  1.0000E+30  1.0000E+30  1.0000E+30  1.0000E+30  1.0000E+30  1.0000E+30
       1.0000E+30  1.0000E+30  2.9556E-03  3.0044E-03  3.0343E-03  3.0459E-03  3.0257E-03  2.9957E-03  2.9485E-03  2.8794E-03
       2.7655E-03  2.6197E-03  2.4445E-03  2.2668E-03  2.0803E-03  1.8983E-03  1.6965E-03  1.4938E-03  1.2381E-03  8.3341E-04
       2.3434E-05  5.2165E-04
  12   1.0000E+30  1.0000E+30  1.0000E+30  1.0000E+30  1.0000E+30  1.0000E+30  1.0000E+30  1.0000E+30  1.0000E+30  1.0000E+30
       1.0000E+30  1.0000E+30  1.0000E+30  1.0000E+30  1.0000E+30  1.0000E+30  1.0000E+30  1.0000E+30  1.0000E+30  1.0000E+30
       1.0000E+30  1.0000E+30  1.0000E+30  2.9046E-03  2.9345E-03  2.9367E-03  2.9245E-03  2.9050E-03  2.8779E-03  2.8173E-03
       2.7189E-03  2.5820E-03  2.4205E-03  2.2519E-03  2.0828E-03  1.9065E-03  1.7327E-03  1.5415E-03  1.3241E-03  1.0448E-03
       7.5129E-04  7.8521E-04
  13   1.0000E+30  1.0000E+30  1.0000E+30  1.0000E+30  1.0000E+30  1.0000E+30  1.0000E+30  1.0000E+30  1.0000E+30  1.0000E+30
       1.0000E+30  1.0000E+30  1.0000E+30  1.0000E+30  1.0000E+30  1.0000E+30  1.0000E+30  1.0000E+30  1.0000E+30  1.0000E+30
       1.0000E+30  1.0000E+30  1.0000E+30  1.0000E+30  1.0000E+30  1.0000E+30  2.8224E-03  2.8180E-03  2.7991E-03  2.7477E-03
       2.6655E-03  2.5419E-03  2.3982E-03  2.2477E-03  2.0913E-03  1.9421E-03  1.7805E-03  1.6204E-03  1.4675E-03  1.2911E-03
       1.1261E-03  1.0852E-03
  14   1.0000E+30  1.0000E+30  1.0000E+30  1.0000E+30  1.0000E+30  1.0000E+30  1.0000E+30  1.0000E+30  1.0000E+30  1.0000E+30
       1.0000E+30  1.0000E+30  1.0000E+30  1.0000E+30  1.0000E+30  1.0000E+30  1.0000E+30  1.0000E+30  1.0000E+30  1.0000E+30
       1.0000E+30  1.0000E+30  1.0000E+30  1.0000E+30  1.0000E+30  1.0000E+30  1.0000E+30  2.7322E-03  2.7193E-03  2.6823E-03
       2.6049E-03  2.5041E-03  2.3747E-03  2.2403E-03  2.1079E-03  1.9726E-03  1.8527E-03  1.7209E-03  1.5923E-03  1.4759E-03
       1.3803E-03  1.3387E-03
  15   1.0000E+30  1.0000E+30  1.0000E+30  1.0000E+30  1.0000E+30  1.0000E+30  1.0000E+30  1.0000E+30  1.0000E+30  1.0000E+30
       1.0000E+30  1.0000E+30  1.0000E+30  1.0000E+30  1.0000E+30  1.0000E+30  1.0000E+30  1.0000E+30  1.0000E+30  1.0000E+30
       1.0000E+30  1.0000E+30  1.0000E+30  1.0000E+30  1.0000E+30  1.0000E+30  1.0000E+30  1.0000E+30  2.6428E-03  2.6147E-03
       2.5498E-03  2.4571E-03  2.3473E-03  2.2339E-03  2.1177E-03  2.0053E-03  1.9009E-03  1.8056E-03  1.7137E-03  1.6363E-03
       1.5594E-03  1.5282E-03
  16   1.0000E+30  1.0000E+30  1.0000E+30  1.0000E+30  1.0000E+30  1.0000E+30  1.0000E+30  1.0000E+30  1.0000E+30  1.0000E+30
       1.0000E+30  1.0000E+30  1.0000E+30  1.0000E+30  1.0000E+30  1.0000E+30  1.0000E+30  1.0000E+30  1.0000E+30  1.0000E+30
       1.0000E+30  1.0000E+30  1.0000E+30  1.0000E+30  1.0000E+30  1.0000E+30  1.0000E+30  1.0000E+30  1.0000E+30  1.0000E+30
       2.4968E-03  2.4197E-03  2.3283E-03  2.2270E-03  2.1325E-03  2.0347E-03  1.9485E-03  1.8783E-03  1.8112E-03  1.7523E-03
       1.7123E-03  1.6813E-03
  17   1.0000E+30  1.0000E+30  1.0000E+30  1.0000E+30  1.0000E+30  1.0000E+30  1.0000E+30  1.0000E+30  1.0000E+30  1.0000E+30
       1.0000E+30  1.0000E+30  1.0000E+30  1.0000E+30  1.0000E+30  1.0000E+30  1.0000E+30  1.0000E+30  1.0000E+30  1.0000E+30
       1.0000E+30  1.0000E+30  1.0000E+30  1.0000E+30  1.0000E+30  1.0000E+30  1.0000E+30  1.0000E+30  1.0000E+30  1.0000E+30
       1.0000E+30  1.0000E+30  1.0000E+30  1.0000E+30  1.0000E+30  2.0632E-03  2.0035E-03  1.9405E-03  1.8967E-03  1.8545E-03
       1.8236E-03  1.8127E-03
  18   1.0000E+30  1.0000E+30  1.0000E+30  1.0000E+30  1.0000E+30  1.0000E+30  1.0000E+30  1.0000E+30  1.0000E+30  1.0000E+30
       1.0000E+30  1.0000E+30  1.0000E+30  1.0000E+30  1.0000E+30  1.0000E+30  1.0000E+30  1.0000E+30  1.0000E+30  1.0000E+30
       1.0000E+30  1.0000E+30  1.0000E+30  1.0000E+30  1.0000E+30  1.0000E+30  1.0000E+30  1.0000E+30  1.0000E+30  1.0000E+30
       1.0000E+30  1.0000E+30  1.0000E+30  1.0000E+30  1.0000E+30  1.0000E+30  1.0000E+30  2.0117E-03  1.9695E-03  1.9447E-03
       1.9254E-03  1.9068E-03
  19   1.0000E+30  1.0000E+30  1.0000E+30  1.0000E+30  1.0000E+30  1.0000E+30  1.0000E+30  1.0000E+30  1.0000E+30  1.0000E+30
       1.0000E+30  1.0000E+30  1.0000E+30  1.0000E+30  1.0000E+30  1.0000E+30  1.0000E+30  1.0000E+30  1.0000E+30  1.0000E+30
       1.0000E+30  1.0000E+30  1.0000E+30  1.0000E+30  1.0000E+30  1.0000E+30  1.0000E+30  1.0000E+30  1.0000E+30  1.0000E+30
       1.0000E+30  1.0000E+30  1.0000E+30  1.0000E+30  1.0000E+30  1.0000E+30  1.0000E+30  1.0000E+30  1.0000E+30  1.0000E+30
       1.0000E+30  1.0000E+30
  20   1.0000E+30  1.0000E+30  1.0000E+30  1.0000E+30  1.0000E+30  1.0000E+30  1.0000E+30  1.0000E+30  1.0000E+30  1.0000E+30
       1.0000E+30  1.0000E+30  1.0000E+30  1.0000E+30  1.0000E+30  1.0000E+30  1.0000E+30  1.0000E+30  1.0000E+30  1.0000E+30
       1.0000E+30  1.0000E+30  1.0000E+30  1.0000E+30  1.0000E+30  1.0000E+30  1.0000E+30  1.0000E+30  1.0000E+30  1.0000E+30
       1.0000E+30  1.0000E+30  1.0000E+30  1.0000E+30  1.0000E+30  1.0000E+30  1.0000E+30  1.0000E+30  1.0000E+30  1.0000E+30
       1.0000E+30  1.0000E+30
  21   1.0000E+30  1.0000E+30  1.0000E+30  1.0000E+30  1.0000E+30  1.0000E+30  1.0000E+30  1.0000E+30  1.0000E+30  1.0000E+30
       1.0000E+30  1.0000E+30  1.0000E+30  1.0000E+30  1.0000E+30  1.0000E+30  1.0000E+30  1.0000E+30  1.0000E+30  1.0000E+30
       1.0000E+30  1.0000E+30  1.0000E+30  1.0000E+30  1.0000E+30  1.0000E+30  1.0000E+30  1.0000E+30  1.0000E+30  1.0000E+30
       1.0000E+30  1.0000E+30  1.0000E+30  1.0000E+30  1.0000E+30  1.0000E+30  1.0000E+30  1.0000E+30  1.0000E+30  1.0000E+30
       1.0000E+30  1.0000E+30
  22   1.0000E+30  1.0000E+30  1.0000E+30  1.0000E+30  1.0000E+30  1.0000E+30  1.0000E+30  1.0000E+30  1.0000E+30  1.0000E+30
       1.0000E+30  1.0000E+30  1.0000E+30  1.0000E+30  1.0000E+30  1.0000E+30  1.0000E+30  1.0000E+30  1.0000E+30  1.0000E+30
       1.0000E+30  1.0000E+30  1.0000E+30  1.0000E+30  1.0000E+30  1.0000E+30  1.0000E+30  1.0000E+30  1.0000E+30  1.0000E+30
       1.0000E+30  1.0000E+30  1.0000E+30  1.0000E+30  1.0000E+30  1.0000E+30  1.0000E+30  1.0000E+30  1.0000E+30  1.0000E+30
       1.0000E+30  1.0000E+30
  23   1.0000E+30  1.0000E+30  1.0000E+30  1.0000E+30  1.0000E+30  1.0000E+30  1.0000E+30  1.0000E+30  1.0000E+30  1.0000E+30
       1.0000E+30  1.0000E+30  1.0000E+30  1.0000E+30  1.0000E+30  1.0000E+30  1.0000E+30  1.0000E+30  1.0000E+30  1.0000E+30
       1.0000E+30  1.0000E+30  1.0000E+30  1.0000E+30  1.0000E+30  1.0000E+30  1.0000E+30  1.0000E+30  1.0000E+30  1.0000E+30
       1.0000E+30  1.0000E+30  1.0000E+30  1.0000E+30  1.0000E+30  1.0000E+30  1.0000E+30  1.0000E+30  1.0000E+30  1.0000E+30
       1.0000E+30  1.0000E+30
  24   1.0000E+30  1.0000E+30  1.0000E+30  1.0000E+30  1.0000E+30  1.0000E+30  1.0000E+30  1.0000E+30  1.0000E+30  1.0000E+30
       1.0000E+30  1.0000E+30  1.0000E+30  1.0000E+30  1.0000E+30  1.0000E+30  1.0000E+30  1.0000E+30  1.0000E+30  1.0000E+30
       1.0000E+30  1.0000E+30  1.0000E+30  1.0000E+30  1.0000E+30  1.0000E+30  1.0000E+30  1.0000E+30  1.0000E+30  1.0000E+30
       1.0000E+30  1.0000E+30  1.0000E+30  1.0000E+30  1.0000E+30  1.0000E+30  1.0000E+30  1.0000E+30  1.0000E+30  1.0000E+30
       1.0000E+30  1.0000E+30
  25   1.0000E+30  1.0000E+30  1.0000E+30  1.0000E+30  1.0000E+30  1.0000E+30  1.0000E+30  1.0000E+30  1.0000E+30  1.0000E+30
       1.0000E+30  1.0000E+30  1.0000E+30  1.0000E+30  1.0000E+30  1.0000E+30  1.0000E+30  1.0000E+30  1.0000E+30  1.0000E+30
       1.0000E+30  1.0000E+30  1.0000E+30  1.0000E+30  1.0000E+30  1.0000E+30  1.0000E+30  1.0000E+30  1.0000E+30  1.0000E+30
       1.0000E+30  1.0000E+30  1.0000E+30  1.0000E+30  1.0000E+30  1.0000E+30  1.0000E+30  1.0000E+30  1.0000E+30  1.0000E+30
       1.0000E+30  1.0000E+30
  26   1.0000E+30  1.0000E+30  1.0000E+30  1.0000E+30  1.0000E+30  1.0000E+30  1.0000E+30  1.0000E+30  1.0000E+30  1.0000E+30
       1.0000E+30  1.0000E+30  1.0000E+30  1.0000E+30  1.0000E+30  1.0000E+30  1.0000E+30  1.0000E+30  1.0000E+30  1.0000E+30
       1.0000E+30  1.0000E+30  1.0000E+30  1.0000E+30  1.0000E+30  1.0000E+30  1.0000E+30  1.0000E+30  1.0000E+30  1.0000E+30
       1.0000E+30  1.0000E+30  1.0000E+30  1.0000E+30  1.0000E+30  1.0000E+30  1.0000E+30  1.0000E+30  1.0000E+30  1.0000E+30
       1.0000E+30  1.0000E+30
  27   1.0000E+30  1.0000E+30  1.0000E+30  1.0000E+30  1.0000E+30  1.0000E+30  1.0000E+30  1.0000E+30  1.0000E+30  1.0000E+30
       1.0000E+30  1.0000E+30  1.0000E+30  1.0000E+30  1.0000E+30  1.0000E+30  1.0000E+30  1.0000E+30  1.0000E+30  1.0000E+30
       1.0000E+30  1.0000E+30  1.0000E+30  1.0000E+30  1.0000E+30  1.0000E+30  1.0000E+30  1.0000E+30  1.0000E+30  1.0000E+30
       1.0000E+30  1.0000E+30  1.0000E+30  1.0000E+30  1.0000E+30  1.0000E+30  1.0000E+30  1.0000E+30  1.0000E+30  1.0000E+30
       1.0000E+30  1.0000E+30
  28   1.0000E+30  1.0000E+30  1.0000E+30  1.0000E+30  1.0000E+30  1.0000E+30  1.0000E+30  1.0000E+30  1.0000E+30  1.0000E+30
       1.0000E+30  1.0000E+30  1.0000E+30  1.0000E+30  1.0000E+30  1.0000E+30  1.0000E+30  1.0000E+30  1.0000E+30  1.0000E+30
       1.0000E+30  1.0000E+30  1.0000E+30  1.0000E+30  1.0000E+30  1.0000E+30  1.0000E+30  1.0000E+30  1.0000E+30  1.0000E+30
       1.0000E+30  1.0000E+30  1.0000E+30  1.0000E+30  1.0000E+30  1.0000E+30  1.0000E+30  1.0000E+30  1.0000E+30  1.0000E+30
       1.0000E+30  1.0000E+30
  29   1.0000E+30  1.0000E+30  1.0000E+30  1.0000E+30  1.0000E+30  1.0000E+30  1.0000E+30  1.0000E+30  1.0000E+30  1.0000E+30
       1.0000E+30  1.0000E+30  1.0000E+30  1.0000E+30  1.0000E+30  1.0000E+30  1.0000E+30  1.0000E+30  1.0000E+30  1.0000E+30
       1.0000E+30  1.0000E+30  1.0000E+30  1.0000E+30  1.0000E+30  1.0000E+30  1.0000E+30  1.0000E+30  1.0000E+30  1.0000E+30
       1.0000E+30  1.0000E+30  1.0000E+30  1.0000E+30  1.0000E+30  1.0000E+30  1.0000E+30  1.0000E+30  1.0000E+30  1.0000E+30
       1.0000E+30  1.0000E+30
  30   1.0000E+30  1.0000E+30  1.0000E+30  1.0000E+30  1.0000E+30  1.0000E+30  1.0000E+30  1.0000E+30  1.0000E+30  1.0000E+30
       1.0000E+30  1.0000E+30  1.0000E+30  1.0000E+30  1.0000E+30  1.0000E+30  1.0000E+30  1.0000E+30  1.0000E+30  1.0000E+30
       1.0000E+30  1.0000E+30  1.0000E+30  1.0000E+30  1.0000E+30  1.0000E+30  1.0000E+30  1.0000E+30  1.0000E+30  1.0000E+30
       1.0000E+30  1.0000E+30  1.0000E+30  1.0000E+30  1.0000E+30  1.0000E+30  1.0000E+30  1.0000E+30  1.0000E+30  1.0000E+30
       1.0000E+30  1.0000E+30
  31   1.0000E+30  1.0000E+30  1.0000E+30  1.0000E+30  1.0000E+30  1.0000E+30  1.0000E+30  1.0000E+30  1.0000E+30  1.0000E+30
       1.0000E+30  1.0000E+30  1.0000E+30  1.0000E+30  1.0000E+30  1.0000E+30  1.0000E+30  1.0000E+30  1.0000E+30  1.0000E+30
       1.0000E+30  1.0000E+30  1.0000E+30  1.0000E+30  1.0000E+30  1.0000E+30  1.0000E+30  1.0000E+30  1.0000E+30  1.0000E+30
       1.0000E+30  1.0000E+30  1.0000E+30  1.0000E+30  1.0000E+30  1.0000E+30  1.0000E+30  1.0000E+30  1.0000E+30  1.0000E+30
       1.0000E+30  1.0000E+30
  32   1.0000E+30  1.0000E+30  1.0000E+30  1.0000E+30  1.0000E+30  1.0000E+30  1.0000E+30  1.0000E+30  1.0000E+30  1.0000E+30
       1.0000E+30  1.0000E+30  1.0000E+30  1.0000E+30  1.0000E+30  1.0000E+30  1.0000E+30  1.0000E+30  1.0000E+30  1.0000E+30
       1.0000E+30  1.0000E+30  1.0000E+30  1.0000E+30  1.0000E+30  1.0000E+30  1.0000E+30  1.0000E+30  1.0000E+30  1.0000E+30
       1.0000E+30  1.0000E+30  1.0000E+30  1.0000E+30  1.0000E+30  1.0000E+30  1.0000E+30  1.0000E+30  1.0000E+30  1.0000E+30
       1.0000E+30  1.0000E+30
  33   1.0000E+30  1.0000E+30  1.0000E+30  1.0000E+30  1.0000E+30  1.0000E+30  1.0000E+30  1.0000E+30  1.0000E+30  1.0000E+30
       1.0000E+30  1.0000E+30  1.0000E+30  1.0000E+30  1.0000E+30  1.0000E+30  1.0000E+30  1.0000E+30  1.0000E+30  1.0000E+30
       1.0000E+30  1.0000E+30  1.0000E+30  1.0000E+30  1.0000E+30  1.0000E+30  1.0000E+30  1.0000E+30  1.0000E+30  1.0000E+30
       1.0000E+30  1.0000E+30  1.0000E+30  1.0000E+30  1.0000E+30  1.0000E+30  1.0000E+30  1.0000E+30  1.0000E+30  1.0000E+30
       1.0000E+30  1.0000E+30
  34   1.0000E+30  1.0000E+30  1.0000E+30  1.0000E+30  1.0000E+30  1.0000E+30  1.0000E+30  1.0000E+30  1.0000E+30  1.0000E+30
       1.0000E+30  1.0000E+30  1.0000E+30  1.0000E+30  1.0000E+30  1.0000E+30  1.0000E+30  1.0000E+30  1.0000E+30  1.0000E+30
       1.0000E+30  1.0000E+30  1.0000E+30  1.0000E+30  1.0000E+30  1.0000E+30  1.0000E+30  1.0000E+30  1.0000E+30  1.0000E+30
       1.0000E+30  1.0000E+30  1.0000E+30  1.0000E+30  1.0000E+30  1.0000E+30  1.0000E+30  1.0000E+30  1.0000E+30  1.0000E+30
       1.0000E+30  1.0000E+30
  35   1.0000E+30  1.0000E+30  1.0000E+30  1.0000E+30  1.0000E+30  1.0000E+30  1.0000E+30  1.0000E+30  1.0000E+30  1.0000E+30
       1.0000E+30  1.0000E+30  1.0000E+30  1.0000E+30  1.0000E+30  1.0000E+30  1.0000E+30  1.0000E+30  1.0000E+30  1.0000E+30
       1.0000E+30  1.0000E+30  1.0000E+30  1.0000E+30  1.0000E+30  1.0000E+30  1.0000E+30  1.0000E+30  1.0000E+30  1.0000E+30
       1.0000E+30  1.0000E+30  1.0000E+30  1.0000E+30  1.0000E+30  1.0000E+30  1.0000E+30  1.0000E+30  1.0000E+30  1.0000E+30
       1.0000E+30  1.0000E+30
  36   1.0000E+30  1.0000E+30  1.0000E+30  1.0000E+30  1.0000E+30  1.0000E+30  1.0000E+30  1.0000E+30  1.0000E+30  1.0000E+30
       1.0000E+30  1.0000E+30  1.0000E+30  1.0000E+30  1.0000E+30  1.0000E+30  1.0000E+30  1.0000E+30  1.0000E+30  1.0000E+30
       1.0000E+30  1.0000E+30  1.0000E+30  1.0000E+30  1.0000E+30  1.0000E+30  1.0000E+30  1.0000E+30  1.0000E+30  1.0000E+30
       1.0000E+30  1.0000E+30  1.0000E+30  1.0000E+30  1.0000E+30  1.0000E+30  1.0000E+30  1.0000E+30  1.0000E+30  1.0000E+30
       1.0000E+30  1.0000E+30
  37   1.0000E+30  1.0000E+30  1.0000E+30  1.0000E+30  1.0000E+30  1.0000E+30  1.0000E+30  1.0000E+30  1.0000E+30  1.0000E+30
       1.0000E+30  1.0000E+30  1.0000E+30  1.0000E+30  1.0000E+30  1.0000E+30  1.0000E+30  1.0000E+30  1.0000E+30  1.0000E+30
       1.0000E+30  1.0000E+30  1.0000E+30  1.0000E+30  1.0000E+30  1.0000E+30  1.0000E+30  1.0000E+30  1.0000E+30  1.0000E+30
       1.0000E+30  1.0000E+30  1.0000E+30  1.0000E+30  1.0000E+30  1.0000E+30  1.0000E+30  1.0000E+30  1.0000E+30  1.0000E+30
       1.0000E+30  1.0000E+30
  38   1.0000E+30  1.0000E+30  1.0000E+30  1.0000E+30  1.0000E+30  1.0000E+30  1.0000E+30  1.0000E+30  1.0000E+30  1.0000E+30
       1.0000E+30  1.0000E+30  1.0000E+30  1.0000E+30  1.0000E+30  1.0000E+30  1.0000E+30  1.0000E+30  1.0000E+30  1.0000E+30
       1.0000E+30  1.0000E+30  1.0000E+30  1.0000E+30  1.0000E+30  1.0000E+30  1.0000E+30  1.0000E+30  1.0000E+30  1.0000E+30
       1.0000E+30  1.0000E+30  1.0000E+30  1.0000E+30  1.0000E+30  1.0000E+30  1.0000E+30  1.0000E+30  1.0000E+30  1.0000E+30
       1.0000E+30  1.0000E+30
1
  HEAD IN LAYER   4 AT END OF TIME STEP   1 IN STRESS PERIOD    1
  ---------------------------------------------------------------------------

            1           2           3           4           5           6           7           8           9          10
           11          12          13          14          15          16          17          18          19          20
           21          22          23          24          25          26          27          28          29          30
           31          32          33          34          35          36          37          38          39          40
           41          42
 ........................................................................................................................
   1   1.0000E+30  1.0000E+30  1.0000E+30  1.0000E+30  1.0000E+30  1.0000E+30  1.0000E+30  1.0000E+30  1.0000E+30  1.0000E+30
       1.0000E+30  1.0000E+30  1.0000E+30  1.0000E+30  1.0000E+30  1.0000E+30  1.0000E+30  1.0000E+30  1.0000E+30  1.0000E+30
       1.0000E+30  1.0000E+30  1.0000E+30  1.0000E+30  1.0000E+30  1.0000E+30  1.0000E+30  1.0000E+30  2.7203E-03  2.6865E-03
       2.6391E-03  2.6095E-03  2.5237E-03  2.4910E-03  2.4299E-03  2.4066E-03  2.3884E-03  2.4042E-03  2.3960E-03  2.4460E-03
       2.3969E-03  2.4439E-03
   2   1.0000E+30  1.0000E+30  1.0000E+30  1.0000E+30  1.0000E+30  1.0000E+30  1.0000E+30  1.0000E+30  1.0000E+30  1.0000E+30
       1.0000E+30  1.0000E+30  1.0000E+30  1.0000E+30  1.0000E+30  1.0000E+30  1.0000E+30  1.0000E+30  1.0000E+30  1.0000E+30
       1.0000E+30  1.0000E+30  1.0000E+30  1.0000E+30  1.0000E+30  1.0000E+30  1.0000E+30  2.7789E-03  2.7476E-03  2.7070E-03
       2.6629E-03  2.6006E-03  2.5654E-03  2.4803E-03  2.4454E-03  2.3996E-03  2.3789E-03  2.3584E-03  2.3740E-03  2.3497E-03
       2.3965E-03  2.3292E-03
   3   1.0000E+30  1.0000E+30  1.0000E+30  1.0000E+30  1.0000E+30  1.0000E+30  1.0000E+30  1.0000E+30  1.0000E+30  1.0000E+30
       1.0000E+30  1.0000E+30  1.0000E+30  1.0000E+30  1.0000E+30  1.0000E+30  1.0000E+30  1.0000E+30  1.0000E+30  1.0000E+30
       1.0000E+30  1.0000E+30  1.0000E+30  1.0000E+30  1.0000E+30  1.0000E+30  1.0000E+30  2.8412E-03  2.7838E-03  2.7285E-03
       2.6822E-03  2.6367E-03  2.5743E-03  2.5179E-03  2.4444E-03  2.3885E-03  2.3305E-03  2.2912E-03  2.2517E-03  2.2764E-03
       2.2244E-03  2.2651E-03
   4   1.0000E+30  1.0000E+30  1.0000E+30  1.0000E+30  1.0000E+30  1.0000E+30  1.0000E+30  1.0000E+30  1.0000E+30  1.0000E+30
       1.0000E+30  1.0000E+30  1.0000E+30  1.0000E+30  1.0000E+30  1.0000E+30  1.0000E+30  1.0000E+30  1.0000E+30  1.0000E+30
       1.0000E+30  1.0000E+30  1.0000E+30  1.0000E+30  1.0000E+30  1.0000E+30  3.0188E-03  2.9279E-03  2.8494E-03  2.7814E-03
       2.7161E-03  2.6668E-03  2.5943E-03  2.5285E-03  2.4314E-03  2.3418E-03  2.2609E-03  2.1716E-03  2.1507E-03  2.0978E-03
       2.1159E-03  2.0893E-03
   5   1.0000E+30  1.0000E+30  1.0000E+30  1.0000E+30  1.0000E+30  1.0000E+30  1.0000E+30  1.0000E+30  1.0000E+30  1.0000E+30
       1.0000E+30  1.0000E+30  1.0000E+30  1.0000E+30  1.0000E+30  1.0000E+30  1.0000E+30  1.0000E+30  1.0000E+30  1.0000E+30
       1.0000E+30  1.0000E+30  3.1692E-03  3.1943E-03  3.2016E-03  3.1779E-03  3.1019E-03  3.0171E-03  2.9205E-03  2.8356E-03
       2.7588E-03  2.6836E-03  2.6109E-03  2.5004E-03  2.3925E-03  2.2851E-03  2.1671E-03  2.0793E-03  2.0066E-03  1.9614E-03
       1.9539E-03  1.9213E-03
   6   1.0000E+30  1.0000E+30  1.0000E+30  1.0000E+30  1.0000E+30  1.0000E+30  1.0000E+30  1.0000E+30  1.0000E+30  1.0000E+30
       1.0000E+30  1.0000E+30  1.0000E+30  1.0000E+30  1.0000E+30  1.0000E+30  1.0000E+30  1.0000E+30  1.0000E+30  1.0000E+30
       1.0000E+30  1.0000E+30  3.1652E-03  3.1901E-03  3.2225E-03  3.2159E-03  3.1707E-03  3.0871E-03  2.9950E-03  2.8878E-03
       2.8001E-03  2.6948E-03  2.5894E-03  2.4621E-03  2.3393E-03  2.2226E-03  2.0683E-03  1.9765E-03  1.8657E-03  1.8288E-03
       1.7602E-03  1.7621E-03
   7   1.0000E+30  1.0000E+30  1.0000E+30  1.0000E+30  1.0000E+30  1.0000E+30  1.0000E+30  1.0000E+30  1.0000E+30  1.0000E+30
       1.0000E+30  1.0000E+30  1.0000E+30  1.0000E+30  1.0000E+30  1.0000E+30  1.0000E+30  1.0000E+30  1.0000E+30  1.0000E+30
       1.0000E+30  1.0000E+30  3.1590E-03  3.1935E-03  3.2291E-03  3.2380E-03  3.2014E-03  3.1360E-03  3.0404E-03  2.9406E-03
       2.8164E-03  2.7025E-03  2.5581E-03  2.4260E-03  2.2795E-03  2.1162E-03  1.9932E-03  1.8529E-03  1.7489E-03  1.6353E-03
       1.5682E-03  1.5368E-03
   8   1.0000E+30  1.0000E+30  1.0000E+30  1.0000E+30  1.0000E+30  1.0000E+30  1.0000E+30  1.0000E+30  1.0000E+30  1.0000E+30
       1.0000E+30  1.0000E+30  1.0000E+30  1.0000E+30  1.0000E+30  1.0000E+30  1.0000E+30  1.0000E+30  1.0000E+30  1.0000E+30
       3.0574E-03  3.0806E-03  3.1271E-03  3.1770E-03  3.2124E-03  3.2256E-03  3.2069E-03  3.1467E-03  3.0633E-03  2.9545E-03
       2.8388E-03  2.6939E-03  2.5416E-03  2.3631E-03  2.2173E-03  2.0459E-03  1.8910E-03  1.7258E-03  1.5733E-03  1.4486E-03
       1.3424E-03  1.2882E-03
   9   1.0000E+30  1.0000E+30  1.0000E+30  1.0000E+30  1.0000E+30  1.0000E+30  1.0000E+30  1.0000E+30  1.0000E+30  1.0000E+30
       1.0000E+30  1.0000E+30  1.0000E+30  1.0000E+30  1.0000E+30  1.0000E+30  1.0000E+30  1.0000E+30  1.0000E+30  1.0000E+30
       2.9985E-03  3.0361E-03  3.0864E-03  3.1360E-03  3.1730E-03  3.1946E-03  3.1721E-03  3.1242E-03  3.0513E-03  2.9575E-03
       2.8343E-03  2.6776E-03  2.5028E-03  2.3344E-03  2.1484E-03  1.9778E-03  1.7754E-03  1.6151E-03  1.4353E-03  1.2311E-03
       1.0701E-03  1.0391E-03
  10   1.0000E+30  1.0000E+30  1.0000E+30  1.0000E+30  1.0000E+30  1.0000E+30  1.0000E+30  1.0000E+30  1.0000E+30  1.0000E+30
       1.0000E+30  1.0000E+30  1.0000E+30  1.0000E+30  1.0000E+30  1.0000E+30  1.0000E+30  1.0000E+30  1.0000E+30  1.0000E+30
       2.9183E-03  2.9755E-03  3.0298E-03  3.0828E-03  3.1171E-03  3.1276E-03  3.1049E-03  3.0734E-03  3.0131E-03  2.9269E-03
       2.8079E-03  2.6542E-03  2.4753E-03  2.2887E-03  2.1111E-03  1.9098E-03  1.7347E-03  1.5236E-03  1.2941E-03  1.0188E-03
       7.1002E-04  7.5167E-04
  11   1.0000E+30  1.0000E+30  1.0000E+30  1.0000E+30  1.0000E+30  1.0000E+30  1.0000E+30  1.0000E+30  1.0000E+30  1.0000E+30
       1.0000E+30  1.0000E+30  1.0000E+30  1.0000E+30  1.0000E+30  1.0000E+30  1.0000E+30  1.0000E+30  1.0000E+30  1.0000E+30
       1.0000E+30  1.0000E+30  2.9555E-03  3.0043E-03  3.0343E-03  3.0459E-03  3.0257E-03  2.9956E-03  2.9485E-03  2.8794E-03
       2.7655E-03  2.6197E-03  2.4445E-03  2.2668E-03  2.0803E-03  1.8984E-03  1.6967E-03  1.4938E-03  1.2382E-03  8.3343E-04
       3.1912E-05  5.2162E-04
  12   1.0000E+30  1.0000E+30  1.0000E+30  1.0000E+30  1.0000E+30  1.0000E+30  1.0000E+30  1.0000E+30  1.0000E+30  1.0000E+30
       1.0000E+30  1.0000E+30  1.0000E+30  1.0000E+30  1.0000E+30  1.0000E+30  1.0000E+30  1.0000E+30  1.0000E+30  1.0000E+30
       1.0000E+30  1.0000E+30  1.0000E+30  2.9045E-03  2.9345E-03  2.9366E-03  2.9245E-03  2.9050E-03  2.8779E-03  2.8173E-03
       2.7189E-03  2.5820E-03  2.4204E-03  2.2519E-03  2.0827E-03  1.9065E-03  1.7327E-03  1.5416E-03  1.3241E-03  1.0448E-03
       7.5128E-04  7.8521E-04
  13   1.0000E+30  1.0000E+30  1.0000E+30  1.0000E+30  1.0000E+30  1.0000E+30  1.0000E+30  1.0000E+30  1.0000E+30  1.0000E+30
       1.0000E+30  1.0000E+30  1.0000E+30  1.0000E+30  1.0000E+30  1.0000E+30  1.0000E+30  1.0000E+30  1.0000E+30  1.0000E+30
       1.0000E+30  1.0000E+30  1.0000E+30  1.0000E+30  1.0000E+30  1.0000E+30  2.8223E-03  2.8180E-03  2.7991E-03  2.7477E-03
       2.6655E-03  2.5419E-03  2.3982E-03  2.2477E-03  2.0913E-03  1.9421E-03  1.7805E-03  1.6205E-03  1.4675E-03  1.2911E-03
       1.1261E-03  1.0852E-03
  14   1.0000E+30  1.0000E+30  1.0000E+30  1.0000E+30  1.0000E+30  1.0000E+30  1.0000E+30  1.0000E+30  1.0000E+30  1.0000E+30
       1.0000E+30  1.0000E+30  1.0000E+30  1.0000E+30  1.0000E+30  1.0000E+30  1.0000E+30  1.0000E+30  1.0000E+30  1.0000E+30
       1.0000E+30  1.0000E+30  1.0000E+30  1.0000E+30  1.0000E+30  1.0000E+30  2.7158E-03  2.7321E-03  2.7193E-03  2.6822E-03
       2.6049E-03  2.5041E-03  2.3747E-03  2.2403E-03  2.1079E-03  1.9726E-03  1.8527E-03  1.7210E-03  1.5924E-03  1.4760E-03
       1.3803E-03  1.3388E-03
  15   1.0000E+30  1.0000E+30  1.0000E+30  1.0000E+30  1.0000E+30  1.0000E+30  1.0000E+30  1.0000E+30  1.0000E+30  1.0000E+30
       1.0000E+30  1.0000E+30  1.0000E+30  1.0000E+30  1.0000E+30  1.0000E+30  1.0000E+30  1.0000E+30  1.0000E+30  1.0000E+30
       1.0000E+30  1.0000E+30  1.0000E+30  1.0000E+30  1.0000E+30  2.5984E-03  2.6271E-03  2.6412E-03  2.6427E-03  2.6147E-03
       2.5498E-03  2.4571E-03  2.3473E-03  2.2339E-03  2.1177E-03  2.0053E-03  1.9009E-03  1.8057E-03  1.7137E-03  1.6363E-03
       1.5594E-03  1.5282E-03
  16   1.0000E+30  1.0000E+30  1.0000E+30  1.0000E+30  1.0000E+30  1.0000E+30  1.0000E+30  1.0000E+30  1.0000E+30  1.0000E+30
       1.0000E+30  1.0000E+30  1.0000E+30  1.0000E+30  1.0000E+30  1.0000E+30  1.0000E+30  1.0000E+30  1.0000E+30  1.0000E+30
       1.0000E+30  1.0000E+30  1.0000E+30  2.4832E-03  2.4951E-03  2.5254E-03  2.5514E-03  2.5681E-03  2.5659E-03  2.5440E-03
       2.4967E-03  2.4197E-03  2.3283E-03  2.2270E-03  2.1325E-03  2.0347E-03  1.9485E-03  1.8783E-03  1.8112E-03  1.7523E-03
       1.7123E-03  1.6813E-03
  17   1.0000E+30  1.0000E+30  1.0000E+30  1.0000E+30  1.0000E+30  1.0000E+30  1.0000E+30  1.0000E+30  1.0000E+30  1.0000E+30
       1.0000E+30  1.0000E+30  1.0000E+30  1.0000E+30  1.0000E+30  1.0000E+30  1.0000E+30  1.0000E+30  2.3009E-03  2.3231E-03
       2.3443E-03  2.3644E-03  2.3874E-03  2.4149E-03  2.4370E-03  2.4652E-03  2.4932E-03  2.5088E-03  2.5074E-03  2.4896E-03
       1.0000E+30  1.0000E+30  1.0000E+30  1.0000E+30  1.0000E+30  2.0633E-03  2.0035E-03  1.9406E-03  1.8967E-03  1.8545E-03
       1.8236E-03  1.8127E-03
  18   1.0000E+30  1.0000E+30  1.0000E+30  1.0000E+30  1.0000E+30  1.0000E+30  1.0000E+30  1.7924E-03  1.8015E-03  1.8272E-03
       1.8694E-03  1.9232E-03  1.9785E-03  2.0357E-03  2.0918E-03  2.1415E-03  2.1810E-03  2.2162E-03  2.2545E-03  2.2836E-03
       2.3085E-03  2.3283E-03  2.3471E-03  2.3674E-03  2.3889E-03  2.4138E-03  1.0000E+30  1.0000E+30  1.0000E+30  1.0000E+30
       1.0000E+30  1.0000E+30  1.0000E+30  1.0000E+30  2.1850E-03  2.1167E-03  2.0643E-03  2.0118E-03  1.9696E-03  1.9446E-03
       1.9254E-03  1.9068E-03
  19   1.0000E+30  1.0000E+30  1.0000E+30  1.0000E+30  1.0000E+30  1.0000E+30  1.0000E+30  1.7869E-03  1.7966E-03  1.8221E-03
       1.8623E-03  1.9133E-03  1.9691E-03  2.0255E-03  2.0782E-03  2.1207E-03  2.1544E-03  2.1870E-03  2.2200E-03  2.2478E-03
       2.2741E-03  2.2939E-03  2.3111E-03  2.3280E-03  2.3447E-03  1.0000E+30  1.0000E+30  1.0000E+30  1.0000E+30  1.0000E+30
       1.0000E+30  1.0000E+30  1.0000E+30  1.0000E+30  2.2219E-03  1.0000E+30  2.1222E-03  2.0813E-03  2.0431E-03  2.0144E-03
       1.9965E-03  1.9857E-03
  20   1.0000E+30  1.0000E+30  1.0000E+30  1.0000E+30  1.0000E+30  1.0000E+30  1.0000E+30  1.7914E-03  1.8005E-03  1.8244E-03
       1.8615E-03  1.9087E-03  1.9604E-03  2.0108E-03  2.0570E-03  2.0954E-03  2.1276E-03  2.1598E-03  2.1931E-03  2.2204E-03
       2.2449E-03  2.2634E-03  2.2793E-03  2.2971E-03  2.3112E-03  1.0000E+30  1.0000E+30  1.0000E+30  1.0000E+30  1.0000E+30
       1.0000E+30  1.0000E+30  1.0000E+30  1.0000E+30  2.2537E-03  2.2278E-03  2.1844E-03  2.1421E-03  2.1030E-03  2.0711E-03
       2.0492E-03  2.0400E-03
  21   1.0000E+30  1.0000E+30  1.0000E+30  1.0000E+30  1.0000E+30  1.0000E+30  1.0000E+30  1.7993E-03  1.8080E-03  1.8303E-03
       1.8643E-03  1.9087E-03  1.9553E-03  1.9970E-03  2.0341E-03  2.0672E-03  2.1003E-03  2.1352E-03  2.1690E-03  2.1976E-03
       2.2191E-03  2.2363E-03  2.2508E-03  1.0000E+30  1.0000E+30  1.0000E+30  1.0000E+30  1.0000E+30  1.0000E+30  1.0000E+30
       1.0000E+30  1.0000E+30  1.0000E+30  1.0000E+30  2.2677E-03  2.2528E-03  2.2234E-03  2.1876E-03  2.1514E-03  2.1194E-03
       2.0952E-03  2.0846E-03
  22   1.0000E+30  1.0000E+30  1.0000E+30  1.0000E+30  1.0000E+30  1.0000E+30  1.0000E+30  1.8081E-03  1.8170E-03  1.8404E-03
       1.8724E-03  1.9110E-03  1.9499E-03  1.9838E-03  2.0129E-03  2.0419E-03  2.0754E-03  2.1143E-03  2.1497E-03  2.1787E-03
       2.2000E-03  2.2173E-03  2.2286E-03  1.0000E+30  1.0000E+30  1.0000E+30  1.0000E+30  1.0000E+30  1.0000E+30  1.0000E+30
       1.0000E+30  1.0000E+30  2.2533E-03  2.2569E-03  2.2599E-03  2.2530E-03  2.2339E-03  2.2075E-03  2.1771E-03  2.1472E-03
       2.1239E-03  2.1108E-03
  23   1.0000E+30  1.0000E+30  1.0000E+30  1.0000E+30  1.0000E+30  1.0000E+30  1.0000E+30  1.0000E+30  1.0000E+30  1.8577E-03
       1.8846E-03  1.9198E-03  1.9498E-03  1.9724E-03  1.9946E-03  2.0207E-03  2.0535E-03  2.0958E-03  2.1334E-03  2.1620E-03
       2.1808E-03  1.0000E+30  1.0000E+30  1.0000E+30  1.0000E+30  1.0000E+30  1.0000E+30  1.0000E+30  2.2096E-03  2.2065E-03
[...]
       2.7161E-03  2.6669E-03  2.5943E-03  2.5286E-03  2.4315E-03  2.3417E-03  2.2610E-03  2.1715E-03  2.1508E-03  2.0979E-03
       2.1158E-03  2.0894E-03
   5   1.0000E+30  1.0000E+30  1.0000E+30  1.0000E+30  1.0000E+30  1.0000E+30  1.0000E+30  1.0000E+30  1.0000E+30  1.0000E+30
       1.0000E+30  1.0000E+30  1.0000E+30  1.0000E+30  1.0000E+30  1.0000E+30  1.0000E+30  1.0000E+30  1.0000E+30  1.0000E+30
       1.0000E+30  3.1502E-03  3.1692E-03  3.1943E-03  3.2016E-03  3.1779E-03  3.1019E-03  3.0171E-03  2.9205E-03  2.8356E-03
       2.7588E-03  2.6836E-03  2.6110E-03  2.5004E-03  2.3924E-03  2.2851E-03  2.1672E-03  2.0793E-03  2.0068E-03  1.9612E-03
       1.9541E-03  1.9212E-03
   6   1.0000E+30  1.0000E+30  1.0000E+30  1.0000E+30  1.0000E+30  1.0000E+30  1.0000E+30  1.0000E+30  1.0000E+30  1.0000E+30
       1.0000E+30  1.0000E+30  1.0000E+30  1.0000E+30  1.0000E+30  1.0000E+30  1.0000E+30  1.0000E+30  1.0000E+30  1.0000E+30
       3.1131E-03  3.1297E-03  3.1652E-03  3.1901E-03  3.2225E-03  3.2159E-03  3.1707E-03  3.0871E-03  2.9950E-03  2.8879E-03
       2.8002E-03  2.6949E-03  2.5894E-03  2.4619E-03  2.3392E-03  2.2229E-03  2.0681E-03  1.9765E-03  1.8655E-03  1.8290E-03
       1.7603E-03  1.7620E-03
   7   1.0000E+30  1.0000E+30  1.0000E+30  1.0000E+30  1.0000E+30  1.0000E+30  1.0000E+30  1.0000E+30  1.0000E+30  1.0000E+30
       1.0000E+30  1.0000E+30  1.0000E+30  1.0000E+30  1.0000E+30  1.0000E+30  1.0000E+30  1.0000E+30  1.0000E+30  1.0000E+30
       3.0973E-03  3.1139E-03  3.1589E-03  3.1934E-03  3.2291E-03  3.2381E-03  3.2014E-03  3.1360E-03  3.0404E-03  2.9405E-03
       2.8165E-03  2.7025E-03  2.5580E-03  2.4260E-03  2.2798E-03  2.1161E-03  1.9930E-03  1.8531E-03  1.7490E-03  1.6354E-03
       1.5680E-03  1.5367E-03
   8   1.0000E+30  1.0000E+30  1.0000E+30  1.0000E+30  1.0000E+30  1.0000E+30  1.0000E+30  1.0000E+30  1.0000E+30  1.0000E+30
       1.0000E+30  1.0000E+30  1.0000E+30  1.0000E+30  1.0000E+30  1.0000E+30  1.0000E+30  1.0000E+30  1.0000E+30  1.0000E+30
       3.0574E-03  3.0806E-03  3.1271E-03  3.1770E-03  3.2125E-03  3.2256E-03  3.2069E-03  3.1467E-03  3.0633E-03  2.9545E-03
       2.8388E-03  2.6939E-03  2.5417E-03  2.3631E-03  2.2172E-03  2.0456E-03  1.8914E-03  1.7259E-03  1.5730E-03  1.4484E-03
       1.3422E-03  1.2882E-03
   9   1.0000E+30  1.0000E+30  1.0000E+30  1.0000E+30  1.0000E+30  1.0000E+30  1.0000E+30  1.0000E+30  1.0000E+30  1.0000E+30
       1.0000E+30  1.0000E+30  1.0000E+30  1.0000E+30  1.0000E+30  1.0000E+30  1.0000E+30  1.0000E+30  1.0000E+30  2.9985E-03
       2.9985E-03  3.0361E-03  3.0864E-03  3.1360E-03  3.1729E-03  3.1946E-03  3.1721E-03  3.1242E-03  3.0513E-03  2.9575E-03
       2.8344E-03  2.6776E-03  2.5027E-03  2.3344E-03  2.1485E-03  1.9779E-03  1.7754E-03  1.6147E-03  1.4354E-03  1.2312E-03
       1.0699E-03  1.0392E-03
  10   1.0000E+30  1.0000E+30  1.0000E+30  1.0000E+30  1.0000E+30  1.0000E+30  1.0000E+30  1.0000E+30  1.0000E+30  1.0000E+30
       1.0000E+30  1.0000E+30  1.0000E+30  1.0000E+30  1.0000E+30  1.0000E+30  1.0000E+30  1.0000E+30  1.0000E+30  1.0000E+30
       2.9183E-03  2.9755E-03  3.0298E-03  3.0828E-03  3.1171E-03  3.1276E-03  3.1049E-03  3.0733E-03  3.0130E-03  2.9268E-03
       2.8078E-03  2.6541E-03  2.4753E-03  2.2888E-03  2.1111E-03  1.9097E-03  1.7346E-03  1.5237E-03  1.2944E-03  1.0184E-03
       7.0963E-04  7.5159E-04
  11   1.0000E+30  1.0000E+30  1.0000E+30  1.0000E+30  1.0000E+30  1.0000E+30  1.0000E+30  1.0000E+30  1.0000E+30  1.0000E+30
       1.0000E+30  1.0000E+30  1.0000E+30  1.0000E+30  1.0000E+30  1.0000E+30  1.0000E+30  1.0000E+30  1.0000E+30  2.7460E-03
       2.8098E-03  2.8783E-03  2.9554E-03  3.0043E-03  3.0342E-03  3.0458E-03  3.0256E-03  2.9956E-03  2.9484E-03  2.8793E-03
       2.7654E-03  2.6197E-03  2.4445E-03  2.2668E-03  2.0804E-03  1.8983E-03  1.6969E-03  1.4939E-03  1.2382E-03  8.3328E-04
       3.8033E-05  5.2173E-04
  12   1.0000E+30  1.0000E+30  1.0000E+30  1.0000E+30  1.0000E+30  1.0000E+30  1.0000E+30  1.0000E+30  1.0000E+30  1.0000E+30
       1.0000E+30  1.0000E+30  1.0000E+30  1.0000E+30  1.0000E+30  1.0000E+30  1.0000E+30  1.0000E+30  2.6255E-03  2.6801E-03
       2.7250E-03  2.7727E-03  2.8410E-03  2.9044E-03  2.9343E-03  2.9365E-03  2.9244E-03  2.9050E-03  2.8778E-03  2.8172E-03
       2.7188E-03  2.5820E-03  2.4204E-03  2.2520E-03  2.0827E-03  1.9067E-03  1.7328E-03  1.5417E-03  1.3244E-03  1.0450E-03
       7.5162E-04  7.8537E-04
  13   1.0000E+30  1.0000E+30  1.0000E+30  1.0000E+30  1.0000E+30  1.0000E+30  1.0000E+30  1.0000E+30  1.0000E+30  1.0000E+30
       1.0000E+30  1.0000E+30  1.0000E+30  1.0000E+30  1.0000E+30  1.0000E+30  1.0000E+30  2.5212E-03  2.5694E-03  2.6144E-03
       2.6545E-03  2.6886E-03  2.7339E-03  2.7744E-03  2.7983E-03  2.8093E-03  2.8222E-03  2.8180E-03  2.7990E-03  2.7476E-03
       2.6653E-03  2.5419E-03  2.3982E-03  2.2478E-03  2.0913E-03  1.9421E-03  1.7806E-03  1.6206E-03  1.4675E-03  1.2911E-03
       1.1264E-03  1.0854E-03
  14   1.0000E+30  1.0000E+30  1.0000E+30  1.0000E+30  1.0000E+30  1.0000E+30  1.0000E+30  1.0000E+30  1.0000E+30  1.0000E+30
       1.0000E+30  1.0000E+30  1.0000E+30  1.0000E+30  1.0000E+30  1.0000E+30  1.0000E+30  2.4744E-03  2.5082E-03  2.5451E-03
       2.5838E-03  2.6162E-03  2.6473E-03  2.6649E-03  2.6848E-03  2.6996E-03  2.7159E-03  2.7319E-03  2.7192E-03  2.6821E-03
       2.6049E-03  2.5039E-03  2.3747E-03  2.2403E-03  2.1078E-03  1.9727E-03  1.8527E-03  1.7211E-03  1.5926E-03  1.4760E-03
       1.3805E-03  1.3390E-03
  15   1.0000E+30  1.0000E+30  1.0000E+30  1.0000E+30  1.0000E+30  1.0000E+30  1.0000E+30  1.0000E+30  1.0000E+30  1.0000E+30
       1.0000E+30  1.0000E+30  1.0000E+30  1.0000E+30  2.1974E-03  2.2431E-03  2.3115E-03  2.3959E-03  2.4439E-03  2.4828E-03
       2.5153E-03  2.5400E-03  2.5645E-03  2.5728E-03  2.5871E-03  2.5986E-03  2.6271E-03  2.6413E-03  2.6425E-03  2.6144E-03
       2.5497E-03  2.4571E-03  2.3473E-03  2.2339E-03  2.1177E-03  2.0054E-03  1.9010E-03  1.8056E-03  1.7137E-03  1.6362E-03
       1.5596E-03  1.5282E-03
  16   1.0000E+30  1.0000E+30  1.0000E+30  1.0000E+30  1.0000E+30  1.0000E+30  1.0000E+30  1.0000E+30  1.0000E+30  1.0000E+30
       1.0000E+30  1.9776E-03  2.0101E-03  2.0686E-03  2.1518E-03  2.2177E-03  2.2847E-03  2.3413E-03  2.3740E-03  2.4093E-03
       2.4442E-03  2.4601E-03  2.4783E-03  2.4834E-03  2.4952E-03  2.5254E-03  2.5514E-03  2.5681E-03  2.5659E-03  2.5439E-03
       2.4966E-03  2.4196E-03  2.3282E-03  2.2272E-03  2.1326E-03  2.0348E-03  1.9485E-03  1.8783E-03  1.8112E-03  1.7524E-03
       1.7121E-03  1.6814E-03
  17   1.0000E+30  1.0000E+30  1.0000E+30  1.0000E+30  1.0000E+30  1.0000E+30  1.0000E+30  1.0000E+30  1.8182E-03  1.8370E-03
       1.8815E-03  1.9433E-03  1.9942E-03  2.0522E-03  2.1199E-03  2.1826E-03  2.2406E-03  2.2825E-03  2.3010E-03  2.3232E-03
       2.3445E-03  2.3645E-03  2.3875E-03  2.4150E-03  2.4370E-03  2.4653E-03  2.4930E-03  2.5087E-03  2.5072E-03  2.4893E-03
       2.4415E-03  2.3805E-03  2.3113E-03  2.2366E-03  2.1573E-03  2.0637E-03  2.0036E-03  1.9408E-03  1.8966E-03  1.8545E-03
       1.8237E-03  1.8126E-03
  18   1.0000E+30  1.0000E+30  1.0000E+30  1.0000E+30  1.0000E+30  1.0000E+30  1.0000E+30  1.7924E-03  1.8015E-03  1.8271E-03
       1.8694E-03  1.9232E-03  1.9785E-03  2.0357E-03  2.0918E-03  2.1415E-03  2.1811E-03  2.2163E-03  2.2545E-03  2.2836E-03
       2.3085E-03  2.3283E-03  2.3471E-03  2.3674E-03  2.3889E-03  2.4138E-03  2.4336E-03  2.4452E-03  2.4433E-03  2.4290E-03
       2.3955E-03  2.3522E-03  2.3023E-03  2.2476E-03  2.1852E-03  2.1169E-03  2.0641E-03  2.0118E-03  1.9697E-03  1.9445E-03
       1.9251E-03  1.9068E-03
  19   1.0000E+30  1.0000E+30  1.0000E+30  1.0000E+30  1.0000E+30  1.0000E+30  1.0000E+30  1.7869E-03  1.7966E-03  1.8222E-03
       1.8623E-03  1.9133E-03  1.9691E-03  2.0255E-03  2.0782E-03  2.1207E-03  2.1544E-03  2.1870E-03  2.2200E-03  2.2478E-03
       2.2740E-03  2.2939E-03  2.3111E-03  2.3280E-03  2.3448E-03  2.3651E-03  2.3815E-03  2.3905E-03  2.3890E-03  2.3796E-03
       2.3573E-03  2.3297E-03  2.2964E-03  2.2609E-03  2.2220E-03  2.1744E-03  2.1225E-03  2.0813E-03  2.0430E-03  2.0143E-03
       1.9964E-03  1.9855E-03
  20   1.0000E+30  1.0000E+30  1.0000E+30  1.0000E+30  1.0000E+30  1.0000E+30  1.0000E+30  1.7914E-03  1.8005E-03  1.8244E-03
       1.8615E-03  1.9088E-03  1.9604E-03  2.0108E-03  2.0570E-03  2.0954E-03  2.1276E-03  2.1598E-03  2.1931E-03  2.2203E-03
       2.2448E-03  2.2634E-03  2.2793E-03  2.2971E-03  2.3111E-03  2.3233E-03  2.3345E-03  2.3421E-03  2.3421E-03  2.3367E-03
       2.3239E-03  2.3088E-03  2.2910E-03  2.2721E-03  2.2539E-03  2.2276E-03  2.1844E-03  2.1422E-03  2.1031E-03  2.0711E-03
       2.0492E-03  2.0400E-03
  21   1.0000E+30  1.0000E+30  1.0000E+30  1.0000E+30  1.0000E+30  1.0000E+30  1.0000E+30  1.7993E-03  1.8080E-03  1.8303E-03
       1.8643E-03  1.9087E-03  1.9553E-03  1.9969E-03  2.0341E-03  2.0672E-03  2.1003E-03  2.1353E-03  2.1690E-03  2.1976E-03
       2.2191E-03  2.2363E-03  2.2509E-03  2.2662E-03  2.2773E-03  2.2858E-03  2.2935E-03  2.2991E-03  2.2983E-03  2.2968E-03
       2.2907E-03  2.2843E-03  2.2781E-03  2.2720E-03  2.2677E-03  2.2526E-03  2.2234E-03  2.1875E-03  2.1513E-03  2.1194E-03
       2.0952E-03  2.0846E-03
  22   1.0000E+30  1.0000E+30  1.0000E+30  1.0000E+30  1.0000E+30  1.0000E+30  1.0000E+30  1.8081E-03  1.8170E-03  1.8404E-03
       1.8724E-03  1.9110E-03  1.9499E-03  1.9838E-03  2.0129E-03  2.0419E-03  2.0754E-03  2.1144E-03  2.1497E-03  2.1787E-03
       2.2000E-03  2.2173E-03  2.2286E-03  2.2380E-03  2.2458E-03  2.2507E-03  2.2553E-03  2.2561E-03  2.2540E-03  2.2531E-03
       2.2518E-03  2.2520E-03  2.2534E-03  2.2570E-03  2.2599E-03  2.2529E-03  2.2338E-03  2.2074E-03  2.1770E-03  2.1472E-03
       2.1238E-03  2.1108E-03
  23   1.0000E+30  1.0000E+30  1.0000E+30  1.0000E+30  1.0000E+30  1.0000E+30  1.0000E+30  1.8171E-03  1.8290E-03  1.8577E-03
       1.8846E-03  1.9198E-03  1.9498E-03  1.9724E-03  1.9946E-03  2.0207E-03  2.0535E-03  2.0958E-03  2.1334E-03  2.1620E-03
       2.1807E-03  2.1915E-03  2.1986E-03  2.2037E-03  2.2080E-03  2.2108E-03  2.2138E-03  2.2123E-03  2.2096E-03  2.2067E-03
       2.2084E-03  2.2111E-03  2.2190E-03  2.2246E-03  2.2286E-03  2.2271E-03  2.2168E-03  2.1982E-03  2.1748E-03  2.1505E-03
       2.1297E-03  2.1168E-03
  24   1.0000E+30  1.0000E+30  1.0000E+30  1.0000E+30  1.0000E+30  1.0000E+30  1.0000E+30  1.0000E+30  1.0000E+30  1.8816E-03
       1.9034E-03  1.9293E-03  1.9500E-03  1.9660E-03  1.9816E-03  2.0048E-03  2.0329E-03  2.0721E-03  2.1071E-03  2.1341E-03
       2.1515E-03  2.1590E-03  2.1606E-03  2.1617E-03  2.1633E-03  2.1635E-03  2.1644E-03  2.1643E-03  2.1597E-03  2.1601E-03
       2.1639E-03  2.1663E-03  2.1707E-03  2.1764E-03  2.1811E-03  2.1824E-03  2.1773E-03  2.1653E-03  2.1481E-03  2.1290E-03
       2.1127E-03  2.1016E-03
  25   1.0000E+30  1.0000E+30  1.0000E+30  1.0000E+30  1.0000E+30  1.0000E+30  1.0000E+30  1.0000E+30  1.0000E+30  1.0000E+30
       1.9203E-03  1.9365E-03  1.9496E-03  1.9608E-03  1.9733E-03  1.9928E-03  2.0189E-03  2.0514E-03  2.0837E-03  2.1100E-03
       2.1236E-03  2.1273E-03  2.1243E-03  2.1226E-03  2.1206E-03  2.1185E-03  2.1143E-03  2.1096E-03  2.1004E-03  2.1052E-03
       2.1122E-03  2.1107E-03  2.1141E-03  2.1193E-03  2.1246E-03  2.1256E-03  2.1220E-03  2.1128E-03  2.0998E-03  2.0857E-03
       2.0733E-03  2.0653E-03
  26   1.0000E+30  1.0000E+30  1.0000E+30  1.0000E+30  1.0000E+30  1.0000E+30  1.0000E+30  1.0000E+30  1.0000E+30  1.0000E+30
       1.0000E+30  1.9439E-03  1.9500E-03  1.9561E-03  1.9652E-03  1.9820E-03  2.0070E-03  2.0352E-03  2.0623E-03  2.0875E-03
       2.0973E-03  2.0982E-03  2.0918E-03  2.0862E-03  2.0799E-03  2.0738E-03  2.0643E-03  2.0563E-03  2.0466E-03  2.0424E-03
       2.0418E-03  2.0433E-03  2.0481E-03  2.0553E-03  2.0627E-03  2.0596E-03  2.0559E-03  2.0488E-03  2.0386E-03  2.0281E-03
       2.0187E-03  2.0120E-03
  27   1.0000E+30  1.0000E+30  1.0000E+30  1.0000E+30  1.0000E+30  1.0000E+30  1.0000E+30  1.0000E+30  1.0000E+30  1.0000E+30
       1.0000E+30  1.0000E+30  1.9504E-03  1.9516E-03  1.9563E-03  1.9692E-03  1.9913E-03  2.0194E-03  2.0452E-03  2.0642E-03
       2.0712E-03  2.0671E-03  2.0564E-03  2.0484E-03  2.0406E-03  2.0320E-03  2.0184E-03  2.0071E-03  1.9953E-03  1.9786E-03
       1.9648E-03  1.9701E-03  1.9780E-03  1.9885E-03  1.9881E-03  1.9880E-03  1.9864E-03  1.9804E-03  1.9718E-03  1.9633E-03
       1.9568E-03  1.9531E-03
  28   1.0000E+30  1.0000E+30  1.0000E+30  1.0000E+30  1.0000E+30  1.0000E+30  1.0000E+30  1.0000E+30  1.0000E+30  1.0000E+30
       1.0000E+30  1.0000E+30  1.0000E+30  1.9472E-03  1.9469E-03  1.9533E-03  1.9707E-03  1.9963E-03  2.0278E-03  2.0385E-03
       2.0455E-03  2.0387E-03  2.0256E-03  2.0124E-03  2.0029E-03  1.9920E-03  1.9768E-03  1.9613E-03  1.9448E-03  1.9265E-03
       1.9054E-03  1.9026E-03  1.9120E-03  1.9119E-03  1.9137E-03  1.9167E-03  1.9167E-03  1.9130E-03  1.9068E-03  1.8994E-03
       1.8945E-03  1.8932E-03
  29   1.0000E+30  1.0000E+30  1.0000E+30  1.0000E+30  1.0000E+30  1.0000E+30  1.0000E+30  1.0000E+30  1.0000E+30  1.0000E+30
       1.0000E+30  1.0000E+30  1.0000E+30  1.0000E+30  1.9338E-03  1.9364E-03  1.9488E-03  1.9697E-03  1.9991E-03  2.0105E-03
       2.0127E-03  2.0052E-03  1.9895E-03  1.9762E-03  1.9681E-03  1.9570E-03  1.9390E-03  1.9204E-03  1.8999E-03  1.8754E-03
       1.8490E-03  1.8409E-03  1.8421E-03  1.8353E-03  1.8376E-03  1.8471E-03  1.8509E-03  1.8505E-03  1.8465E-03  1.8402E-03
       1.8364E-03  1.8361E-03
  30   1.0000E+30  1.0000E+30  1.0000E+30  1.0000E+30  1.0000E+30  1.0000E+30  1.0000E+30  1.0000E+30  1.0000E+30  1.0000E+30
       1.0000E+30  1.0000E+30  1.0000E+30  1.0000E+30  1.9200E-03  1.9222E-03  1.9301E-03  1.9485E-03  1.9726E-03  1.9811E-03
       1.9790E-03  1.9700E-03  1.9603E-03  1.9477E-03  1.9399E-03  1.9262E-03  1.9074E-03  1.8862E-03  1.8612E-03  1.8311E-03
       1.8037E-03  1.7900E-03  1.7796E-03  1.7782E-03  1.7804E-03  1.7863E-03  1.7914E-03  1.7933E-03  1.7915E-03  1.7869E-03
       1.7844E-03  1.7854E-03
  31   1.0000E+30  1.0000E+30  1.0000E+30  1.0000E+30  1.0000E+30  1.0000E+30  1.0000E+30  1.0000E+30  1.0000E+30  1.0000E+30
       1.0000E+30  1.0000E+30  1.0000E+30  1.0000E+30  1.9111E-03  1.9130E-03  1.9191E-03  1.9306E-03  1.9505E-03  1.9599E-03
       1.9578E-03  1.9420E-03  1.9345E-03  1.9253E-03  1.9201E-03  1.9072E-03  1.8845E-03  1.8609E-03  1.8333E-03  1.7996E-03
       1.7755E-03  1.7558E-03  1.7406E-03  1.7317E-03  1.7292E-03  1.7320E-03  1.7372E-03  1.7417E-03  1.7424E-03  1.7403E-03
       1.7396E-03  1.7417E-03
  32   1.0000E+30  1.0000E+30  1.0000E+30  1.0000E+30  1.0000E+30  1.0000E+30  1.0000E+30  1.0000E+30  1.0000E+30  1.0000E+30
       1.0000E+30  1.0000E+30  1.0000E+30  1.0000E+30  1.9067E-03  1.9094E-03  1.9138E-03  1.9228E-03  1.9337E-03  1.9395E-03
       1.9358E-03  1.9232E-03  1.9207E-03  1.9148E-03  1.9110E-03  1.8960E-03  1.8706E-03  1.8501E-03  1.8246E-03  1.7925E-03
       1.7614E-03  1.7336E-03  1.7101E-03  1.6927E-03  1.6839E-03  1.6838E-03  1.6896E-03  1.6966E-03  1.7006E-03  1.7014E-03
       1.7025E-03  1.7054E-03
  33   1.0000E+30  1.0000E+30  1.0000E+30  1.0000E+30  1.0000E+30  1.0000E+30  1.0000E+30  1.0000E+30  1.0000E+30  1.0000E+30
       1.0000E+30  1.0000E+30  1.0000E+30  1.0000E+30  1.9063E-03  1.9085E-03  1.9128E-03  1.9178E-03  1.9283E-03  1.9345E-03
       1.9307E-03  1.9154E-03  1.9161E-03  1.9140E-03  1.9183E-03  1.9108E-03  1.8896E-03  1.8658E-03  1.8328E-03  1.7942E-03
       1.7552E-03  1.7179E-03  1.6854E-03  1.6605E-03  1.6471E-03  1.6457E-03  1.6521E-03  1.6613E-03  1.6682E-03  1.6714E-03
       1.6735E-03  1.6766E-03
  34   1.0000E+30  1.0000E+30  1.0000E+30  1.0000E+30  1.0000E+30  1.0000E+30  1.0000E+30  1.0000E+30  1.0000E+30  1.0000E+30
       1.0000E+30  1.0000E+30  1.0000E+30  1.0000E+30  1.0000E+30  1.0000E+30  1.0000E+30  1.0000E+30  1.0000E+30  1.0000E+30
       1.0000E+30  1.0000E+30  1.0000E+30  1.0000E+30  1.9348E-03  1.9279E-03  1.9077E-03  1.8782E-03  1.8417E-03  1.7990E-03
       1.7529E-03  1.7068E-03  1.6664E-03  1.6372E-03  1.6227E-03  1.6239E-03  1.6286E-03  1.6378E-03  1.6457E-03  1.6497E-03
       1.6520E-03  1.6547E-03
  35   1.0000E+30  1.0000E+30  1.0000E+30  1.0000E+30  1.0000E+30  1.0000E+30  1.0000E+30  1.0000E+30  1.0000E+30  1.0000E+30
       1.0000E+30  1.0000E+30  1.0000E+30  1.0000E+30  1.0000E+30  1.0000E+30  1.0000E+30  1.0000E+30  1.0000E+30  1.0000E+30
       1.0000E+30  1.0000E+30  1.0000E+30  1.0000E+30  1.9442E-03  1.9366E-03  1.9163E-03  1.8862E-03  1.8494E-03  1.8049E-03
       1.7529E-03  1.6989E-03  1.6535E-03  1.6228E-03  1.6109E-03  1.6161E-03  1.6203E-03  1.6269E-03  1.6336E-03  1.6365E-03
       1.6379E-03  1.6399E-03
  36   1.0000E+30  1.0000E+30  1.0000E+30  1.0000E+30  1.0000E+30  1.0000E+30  1.0000E+30  1.0000E+30  1.0000E+30  1.0000E+30
       1.0000E+30  1.0000E+30  1.0000E+30  1.0000E+30  1.0000E+30  1.0000E+30  1.0000E+30  1.0000E+30  1.0000E+30  1.0000E+30
       1.0000E+30  1.0000E+30  1.0000E+30  1.0000E+30  1.9452E-03  1.9393E-03  1.9200E-03  1.8911E-03  1.8559E-03  1.8113E-03
       1.7553E-03  1.6966E-03  1.6498E-03  1.6186E-03  1.6078E-03  1.6124E-03  1.6177E-03  1.6246E-03  1.6300E-03  1.6317E-03
       1.6322E-03  1.6339E-03
  37   1.0000E+30  1.0000E+30  1.0000E+30  1.0000E+30  1.0000E+30  1.0000E+30  1.0000E+30  1.0000E+30  1.0000E+30  1.0000E+30
       1.0000E+30  1.0000E+30  1.0000E+30  1.0000E+30  1.0000E+30  1.0000E+30  1.0000E+30  1.0000E+30  1.0000E+30  1.0000E+30
       1.0000E+30  1.0000E+30  1.0000E+30  1.0000E+30  1.9383E-03  1.9340E-03  1.9185E-03  1.8920E-03  1.8582E-03  1.8148E-03
       1.7602E-03  1.7014E-03  1.6639E-03  1.6280E-03  1.6143E-03  1.6118E-03  1.0000E+30  1.0000E+30  1.0000E+30  1.0000E+30
       1.0000E+30  1.0000E+30
  38   1.0000E+30  1.0000E+30  1.0000E+30  1.0000E+30  1.0000E+30  1.0000E+30  1.0000E+30  1.0000E+30  1.0000E+30  1.0000E+30
       1.0000E+30  1.0000E+30  1.0000E+30  1.0000E+30  1.0000E+30  1.0000E+30  1.0000E+30  1.0000E+30  1.0000E+30  1.0000E+30
       1.0000E+30  1.0000E+30  1.0000E+30  1.0000E+30  1.9351E-03  1.9279E-03  1.9125E-03  1.8888E-03  1.8588E-03  1.8251E-03
       1.7944E-03  1.0000E+30  1.0000E+30  1.0000E+30  1.0000E+30  1.0000E+30  1.0000E+30  1.0000E+30  1.0000E+30  1.0000E+30
       1.0000E+30  1.0000E+30


  VOLUME BUDGET FOR ENTIRE MODEL AT END OF TIME STEP    1, STRESS PERIOD   1
  ---------------------------------------------------------------------------------------------------

     CUMULATIVE VOLUME      L**3       RATES FOR THIS TIME STEP      L**3/T          PACKAGE NAME    
     ------------------                 ------------------------                     ----------------

           IN:                                      IN:
           ---                                      ---
                 CHD =           0.0000                   CHD =           0.0000     SEA             

            TOTAL IN =           0.0000              TOTAL IN =           0.0000

          OUT:                                     OUT:
          ----                                     ----
                 CHD =       5.1577E-05                   CHD =       5.1577E-05     SEA             

           TOTAL OUT =       5.1577E-05             TOTAL OUT =       5.1577E-05

            IN - OUT =      -5.1577E-05              IN - OUT =      -5.1577E-05

 PERCENT DISCREPANCY =        -200.00     PERCENT DISCREPANCY =        -200.00




         TIME SUMMARY AT END OF TIME STEP    1 IN STRESS PERIOD    1
                    SECONDS     MINUTES      HOURS       DAYS        YEARS
                    -----------------------------------------------------------
   TIME STEP LENGTH  1.0000     1.66667E-02 2.77778E-04 1.15741E-05 3.16881E-08
 STRESS PERIOD TIME  1.0000     1.66667E-02 2.77778E-04 1.15741E-05 3.16881E-08
         TOTAL TIME  1.0000     1.66667E-02 2.77778E-04 1.15741E-05 3.16881E-08
