                                   MODFLOW 6
                U.S. GEOLOGICAL SURVEY MODULAR HYDROLOGIC MODEL
                          GROUNDWATER FLOW MODEL (GWF)
                            VERSION 6.0.4 03/13/2019

   MODFLOW 6 compiled Mar 21 2019 15:37:31 with IFORT compiler (ver. 19.0.0)

This software has been approved for release by the U.S. Geological 
Survey (USGS). Although the software has been subjected to rigorous 
review, the USGS reserves the right to update the software as needed 
pursuant to further analysis and review. No warranty, expressed or 
implied, is made by the USGS or the U.S. Government as to the 
functionality of the software and related material nor shall the 
fact of release constitute any such warranty. Furthermore, the 
software is released on condition that neither the USGS nor the U.S. 
Government shall be held liable for any damages resulting from its 
authorized or unauthorized use. Also refer to the USGS Water 
Resources Software User Rights Notice for complete use, copyright, 
and distribution information.


MODFLOW was compiled using uniform precision.
Precision of REAL variables: 15


 OPENED test_perma.dis
 FILE TYPE:DIS6                   UNIT 1005   STATUS:OLD                 
 FORMAT:FORMATTED              ACCESS:SEQUENTIAL          
 ACTION:READ                


 OPENED test_perma.ic
 FILE TYPE:IC6                    UNIT 1006   STATUS:OLD                 
 FORMAT:FORMATTED              ACCESS:SEQUENTIAL          
 ACTION:READ                


 OPENED test_perma.npf
 FILE TYPE:NPF6                   UNIT 1007   STATUS:OLD                 
 FORMAT:FORMATTED              ACCESS:SEQUENTIAL          
 ACTION:READ                


 OPENED test_perma.rch
 FILE TYPE:RCH6                   UNIT 1008   STATUS:OLD                 
 FORMAT:FORMATTED              ACCESS:SEQUENTIAL          
 ACTION:READ                


 OPENED test_perma.oc
 FILE TYPE:OC6                    UNIT 1009   STATUS:OLD                 
 FORMAT:FORMATTED              ACCESS:SEQUENTIAL          
 ACTION:READ                


 OPENED sea.chd
 FILE TYPE:CHD6                   UNIT 1010   STATUS:OLD                 
 FORMAT:FORMATTED              ACCESS:SEQUENTIAL          
 ACTION:READ                


 OPENED riv.chd
 FILE TYPE:CHD6                   UNIT 1011   STATUS:OLD                 
 FORMAT:FORMATTED              ACCESS:SEQUENTIAL          
 ACTION:READ                


 OPENED plio.chd
 FILE TYPE:CHD6                   UNIT 1012   STATUS:OLD                 
 FORMAT:FORMATTED              ACCESS:SEQUENTIAL          
 ACTION:READ                


 OPENED well.wel
 FILE TYPE:WEL6                   UNIT 1013   STATUS:OLD                 
 FORMAT:FORMATTED              ACCESS:SEQUENTIAL          
 ACTION:READ                


 OPENED debordement.drn
 FILE TYPE:DRN6                   UNIT 1014   STATUS:OLD                 
 FORMAT:FORMATTED              ACCESS:SEQUENTIAL          
 ACTION:READ                


 DIS -- STRUCTURED GRID DISCRETIZATION PACKAGE, VERSION 2 : 3/27/2014 - INPUT READ FROM UNIT 1005


 PROCESSING DISCRETIZATION OPTIONS
    XORIGIN SPECIFIED AS     620000.000000000    
    YORIGIN SPECIFIED AS     3024000.00000000    
 END OF DISCRETIZATION OPTIONS
 MODEL LENGTH UNIT IS UNDEFINED
 PROCESSING DISCRETIZATION DIMENSIONS
    NLAY =       5
    NROW =      38
    NCOL =      42
 END OF DISCRETIZATION DIMENSIONS
 PROCESSING GRIDDATA
 END PROCESSING GRIDDATA

 THE SPECIFIED IDOMAIN RESULTS IN A REDUCED NUMBER OF CELLS.
 NUMBER OF USER NODES:    7980
 NUMBER OF NODES IN SOLUTION:    2879



 NPF -- NODE PROPERTY FLOW PACKAGE, VERSION 1, 3/30/2015 INPUT READ FROM UNIT 1007


 PROCESSING NPF OPTIONS
    CELL-BY-CELL FLOW INFORMATION WILL BE SAVED TO BINARY FILE WHENEVER ICBCFL IS NOT ZERO.
 END OF NPF OPTIONS

 WEL   -- WEL PACKAGE, VERSION 8, 2/22/2014 INPUT READ FROM UNIT 1013

 PROCESSING WEL OPTIONS
    FLOWS WILL BE SAVED TO BUDGET FILE SPECIFIED IN OUTPUT CONTROL
 END OF WEL OPTIONS

 PROCESSING WEL DIMENSIONS
    MAXBOUND =     401
 END OF WEL DIMENSIONS

 DRN   -- DRN PACKAGE, VERSION 8, 2/22/2014 INPUT READ FROM UNIT 1014

 PROCESSING DRN OPTIONS
    FLOWS WILL BE SAVED TO BUDGET FILE SPECIFIED IN OUTPUT CONTROL
 END OF DRN OPTIONS

 PROCESSING DRN DIMENSIONS
    MAXBOUND =      72
 END OF DRN DIMENSIONS

 RCH   -- RCH PACKAGE, VERSION 8, 2/22/2014 INPUT READ FROM UNIT 1008

 PROCESSING RCH OPTIONS
    RECHARGE WILL BE APPLIED TO SPECIFIED CELL.
    FLOWS WILL BE SAVED TO BUDGET FILE SPECIFIED IN OUTPUT CONTROL
 END OF RCH OPTIONS

 PROCESSING RCH DIMENSIONS
    MAXBOUND =     834
 END OF RCH DIMENSIONS

 CHD   -- CHD PACKAGE, VERSION 8, 2/22/2014 INPUT READ FROM UNIT 1010

 PROCESSING CHD OPTIONS
 END OF CHD OPTIONS

 PROCESSING CHD DIMENSIONS
    MAXBOUND =     212
 END OF CHD DIMENSIONS

 CHD   -- CHD PACKAGE, VERSION 8, 2/22/2014 INPUT READ FROM UNIT 1011

 PROCESSING CHD OPTIONS
 END OF CHD OPTIONS

 PROCESSING CHD DIMENSIONS
    MAXBOUND =      11
 END OF CHD DIMENSIONS

 CHD   -- CHD PACKAGE, VERSION 8, 2/22/2014 INPUT READ FROM UNIT 1012

 PROCESSING CHD OPTIONS
    FLOWS WILL BE SAVED TO BUDGET FILE SPECIFIED IN OUTPUT CONTROL
 END OF CHD OPTIONS

 PROCESSING CHD DIMENSIONS
    MAXBOUND =      13
 END OF CHD DIMENSIONS

 IC -- INITIAL CONDITIONS PACKAGE, VERSION 8, 3/28/2015 INPUT READ FROM UNIT 1006
 PROCESSING GRIDDATA

     INITIAL HEAD =   1.000000    
 END PROCESSING GRIDDATA
 PROCESSING GRIDDATA

                ICELLTYPE = 0 FOR LAYER 1

                ICELLTYPE = 0 FOR LAYER 2

                ICELLTYPE = 0 FOR LAYER 3

                ICELLTYPE = 0 FOR LAYER 4

                ICELLTYPE = 0 FOR LAYER 5
 K33 not provided.  Assuming K33 = K.
 K22 not provided.  Assuming K22 = K.
 END PROCESSING GRIDDATA
    BINARY GRID INFORMATION WILL BE WRITTEN TO:
      UNIT NUMBER: 1016
      FILE NAME: C:\Users\emmal\Documents\Uni\Unine\TM\TM_Ludovic_Schorpp\codes_tests\Chabart\notebooks\working\test_perma.dis.grb

 OPENED C:\Users\emmal\Documents\Uni\Unine\TM\TM_Ludovic_Schorpp\codes_tests\Chabart\notebooks\working\test_perma.dis.grb
 FILE TYPE:DATA(BINARY)   UNIT 1016   STATUS:REPLACE             
 FORMAT:UNFORMATTED            ACCESS:STREAM              
 ACTION:READWRITE           

      THE LAST TIME STEP WILL BE PRINTED
      THE LAST TIME STEP WILL BE PRINTED
 PROCESSING OC OPTIONS
    BUDGET INFORMATION WILL BE WRITTEN TO:
      UNIT NUMBER: 1017
      FILE NAME: test_perma.cbc

 OPENED test_perma.cbc
 FILE TYPE:DATA(BINARY)   UNIT 1017   STATUS:REPLACE             
 FORMAT:UNFORMATTED            ACCESS:STREAM              
 ACTION:READWRITE           

    HEAD INFORMATION WILL BE WRITTEN TO:
      UNIT NUMBER: 1018
      FILE NAME: test_perma.hds

 OPENED test_perma.hds
 FILE TYPE:DATA(BINARY)   UNIT 1018   STATUS:REPLACE             
 FORMAT:UNFORMATTED            ACCESS:STREAM              
 ACTION:READWRITE           

 END OF OC OPTIONS

 BEGIN READING OUTPUT CONTROL FOR STRESS PERIOD 1
      THE LAST TIME STEP WILL BE SAVED
      ALL TIME STEPS WILL BE SAVED
      THE LAST TIME STEP WILL BE PRINTED
      ALL TIME STEPS WILL BE PRINTED

 END READING OUTPUT CONTROL FOR STRESS PERIOD 1
 UBDSV1 SAVING     FLOW-JA-FACE ON UNIT   1017 AT TIME STEP      1, STRESS PERIOD      1
 UBDSV06 SAVING       DATA-SPDIS IN MODEL TEST_PERMA       PACKAGE NPF             CONNECTED TO MODEL TEST_PERMA       PACKAGE NPF              ON UNIT   1017 AT TIME STEP      1, STRESS PERIOD      1
 UBDSV06 SAVING              WEL IN MODEL TEST_PERMA       PACKAGE TEST_PERMA      CONNECTED TO MODEL TEST_PERMA       PACKAGE WELL             ON UNIT   1017 AT TIME STEP      1, STRESS PERIOD      1
 UBDSV06 SAVING              DRN IN MODEL TEST_PERMA       PACKAGE TEST_PERMA      CONNECTED TO MODEL TEST_PERMA       PACKAGE DEBORDEMENT      ON UNIT   1017 AT TIME STEP      1, STRESS PERIOD      1
 UBDSV06 SAVING              RCH IN MODEL TEST_PERMA       PACKAGE TEST_PERMA      CONNECTED TO MODEL TEST_PERMA       PACKAGE RCH              ON UNIT   1017 AT TIME STEP      1, STRESS PERIOD      1
 UBDSV06 SAVING              CHD IN MODEL TEST_PERMA       PACKAGE TEST_PERMA      CONNECTED TO MODEL TEST_PERMA       PACKAGE PLIO             ON UNIT   1017 AT TIME STEP      1, STRESS PERIOD      1
1
  HEAD IN LAYER   1 AT END OF TIME STEP   1 IN STRESS PERIOD    1
  ---------------------------------------------------------------------------

            1           2           3           4           5           6           7           8           9          10
           11          12          13          14          15          16          17          18          19          20
           21          22          23          24          25          26          27          28          29          30
           31          32          33          34          35          36          37          38          39          40
           41          42
 ........................................................................................................................
   1   1.0000E+30  1.0000E+30  1.0000E+30  1.0000E+30  1.0000E+30  1.0000E+30  1.0000E+30  1.0000E+30  1.0000E+30  1.0000E+30
       1.0000E+30  1.0000E+30  1.0000E+30  1.0000E+30  1.0000E+30  1.0000E+30  1.0000E+30  1.0000E+30  1.0000E+30  1.0000E+30
       1.0000E+30  1.0000E+30  1.0000E+30  1.0000E+30  1.0000E+30  1.0000E+30  1.0000E+30  1.0000E+30  1.0000E+30   3.298    
        2.788       1.967      0.1000      0.1000      0.1000      0.1000      0.1000      0.1000      0.1000      0.1000    
       0.1000      0.1000    
   2   1.0000E+30  1.0000E+30  1.0000E+30  1.0000E+30  1.0000E+30  1.0000E+30  1.0000E+30  1.0000E+30  1.0000E+30  1.0000E+30
       1.0000E+30  1.0000E+30  1.0000E+30  1.0000E+30  1.0000E+30  1.0000E+30  1.0000E+30  1.0000E+30  1.0000E+30  1.0000E+30
       1.0000E+30  1.0000E+30  1.0000E+30  1.0000E+30  1.0000E+30  1.0000E+30  1.0000E+30  1.0000E+30   4.444       3.401    
        3.121      0.1000      0.1000      0.1000      0.1000      0.1000      0.1000      0.1000      0.1000      0.1000    
       0.1000      0.1000    
   3   1.0000E+30  1.0000E+30  1.0000E+30  1.0000E+30  1.0000E+30  1.0000E+30  1.0000E+30  1.0000E+30  1.0000E+30  1.0000E+30
       1.0000E+30  1.0000E+30  1.0000E+30  1.0000E+30  1.0000E+30  1.0000E+30  1.0000E+30  1.0000E+30  1.0000E+30  1.0000E+30
       1.0000E+30  1.0000E+30  1.0000E+30  1.0000E+30  1.0000E+30  1.0000E+30  1.0000E+30   5.668       4.699       3.587    
        3.223      0.1000      0.1000      0.1000      0.1000      0.1000      0.1000      0.1000      0.1000      0.1000    
       0.1000      0.1000    
   4   1.0000E+30  1.0000E+30  1.0000E+30  1.0000E+30  1.0000E+30  1.0000E+30  1.0000E+30  1.0000E+30  1.0000E+30  1.0000E+30
       1.0000E+30  1.0000E+30  1.0000E+30  1.0000E+30  1.0000E+30  1.0000E+30  1.0000E+30  1.0000E+30  1.0000E+30  1.0000E+30
       1.0000E+30  1.0000E+30  1.0000E+30  1.0000E+30  1.0000E+30  1.0000E+30   9.596       6.985       4.798       3.897    
        3.286       2.790      0.1000      0.1000      0.1000      0.1000      0.1000      0.1000      0.1000      0.1000    
       0.1000      0.1000    
   5   1.0000E+30  1.0000E+30  1.0000E+30  1.0000E+30  1.0000E+30  1.0000E+30  1.0000E+30  1.0000E+30  1.0000E+30  1.0000E+30
       1.0000E+30  1.0000E+30  1.0000E+30  1.0000E+30  1.0000E+30  1.0000E+30  1.0000E+30  1.0000E+30  1.0000E+30  1.0000E+30
       1.0000E+30  1.0000E+30   34.49       28.58       22.83       17.65       11.30       7.857       5.193       4.101    
        3.449       2.896      0.1000      0.1000      0.1000      0.1000      0.1000      0.1000      0.1000      0.1000    
       0.1000      0.1000    
   6   1.0000E+30  1.0000E+30  1.0000E+30  1.0000E+30  1.0000E+30  1.0000E+30  1.0000E+30  1.0000E+30  1.0000E+30  1.0000E+30
       1.0000E+30  1.0000E+30  1.0000E+30  1.0000E+30  1.0000E+30  1.0000E+30  1.0000E+30  1.0000E+30  1.0000E+30  1.0000E+30
       1.0000E+30  1.0000E+30   30.20       28.46       23.73       16.66       10.72       7.949       5.879       4.279    
        3.506       2.867       2.376      0.1000      0.1000      0.1000      0.1000      0.1000      0.1000      0.1000    
       0.1000      0.1000    
   7   1.0000E+30  1.0000E+30  1.0000E+30  1.0000E+30  1.0000E+30  1.0000E+30  1.0000E+30  1.0000E+30  1.0000E+30  1.0000E+30
       1.0000E+30  1.0000E+30  1.0000E+30  1.0000E+30  1.0000E+30  1.0000E+30  1.0000E+30  1.0000E+30  1.0000E+30  1.0000E+30
       1.0000E+30  1.0000E+30   28.25       27.25       24.26       16.07       11.09       8.176       6.316       4.449    
        3.483       2.882       2.372       1.957      0.1000      0.1000      0.1000      0.1000      0.1000      0.1000    
       0.1000      0.1000    
   8   1.0000E+30  1.0000E+30  1.0000E+30  1.0000E+30  1.0000E+30  1.0000E+30  1.0000E+30  1.0000E+30  1.0000E+30  1.0000E+30
       1.0000E+30  1.0000E+30  1.0000E+30  1.0000E+30  1.0000E+30  1.0000E+30  1.0000E+30  1.0000E+30  1.0000E+30  1.0000E+30
        28.90       25.94       25.60       22.82       20.40       18.63       12.30       9.224       6.548       4.203    
        3.565       2.855       2.276       1.861       1.583      0.1000      0.6691      0.1000      0.1000      0.1000    
       0.1000      0.1000    
   9   1.0000E+30  1.0000E+30  1.0000E+30  1.0000E+30  1.0000E+30  1.0000E+30  1.0000E+30  1.0000E+30  1.0000E+30  1.0000E+30
       1.0000E+30  1.0000E+30  1.0000E+30  1.0000E+30  1.0000E+30  1.0000E+30  1.0000E+30  1.0000E+30  1.0000E+30  1.0000E+30
        26.13       21.00       22.38       21.33       19.65       17.03       13.57       10.20       6.845       4.480    
        3.614       2.896       2.185       1.652       1.329      0.9135      0.7333      0.1000      0.1000      0.1000    
       0.1000      0.1000    
  10   1.0000E+30  1.0000E+30  1.0000E+30  1.0000E+30  1.0000E+30  1.0000E+30  1.0000E+30  1.0000E+30  1.0000E+30  1.0000E+30
       1.0000E+30  1.0000E+30  1.0000E+30  1.0000E+30  1.0000E+30  1.0000E+30  1.0000E+30  1.0000E+30  1.0000E+30  1.0000E+30
        27.59       24.08       22.76       20.00       17.98       15.99       12.89       10.43       7.154       4.665    
        3.700       2.940       2.057       1.343       1.139      0.8560      0.7101      0.1000      0.1000      0.1000    
       0.1000      0.1000    
  11   1.0000E+30  1.0000E+30  1.0000E+30  1.0000E+30  1.0000E+30  1.0000E+30  1.0000E+30  1.0000E+30  1.0000E+30  1.0000E+30
       1.0000E+30  1.0000E+30  1.0000E+30  1.0000E+30  1.0000E+30  1.0000E+30  1.0000E+30  1.0000E+30  1.0000E+30  1.0000E+30
       1.0000E+30  1.0000E+30  1.0000E+30   19.55       18.11       15.99       12.97       9.570       5.598       4.580    
        3.851       3.153       2.235       1.451       1.086      0.8120      0.6859      0.1000      0.1000      0.1000    
       0.1000      0.1000    
  12   1.0000E+30  1.0000E+30  1.0000E+30  1.0000E+30  1.0000E+30  1.0000E+30  1.0000E+30  1.0000E+30  1.0000E+30  1.0000E+30
       1.0000E+30  1.0000E+30  1.0000E+30  1.0000E+30  1.0000E+30  1.0000E+30  1.0000E+30  1.0000E+30  1.0000E+30  1.0000E+30
       1.0000E+30  1.0000E+30  1.0000E+30  1.0000E+30  1.0000E+30  1.0000E+30   16.22       9.005       5.296       4.698    
        4.091       3.441       2.451       1.441       1.105      0.8077      0.6018      0.1000      0.1000      0.1000    
       0.1000      0.1000    
  13   1.0000E+30  1.0000E+30  1.0000E+30  1.0000E+30  1.0000E+30  1.0000E+30  1.0000E+30  1.0000E+30  1.0000E+30  1.0000E+30
       1.0000E+30  1.0000E+30  1.0000E+30  1.0000E+30  1.0000E+30  1.0000E+30  1.0000E+30  1.0000E+30  1.0000E+30  1.0000E+30
       1.0000E+30  1.0000E+30  1.0000E+30  1.0000E+30  1.0000E+30  1.0000E+30   18.31       8.481       5.983       5.133    
        4.448       3.737       2.867       1.896       1.151      0.7027      0.4883      0.1000      0.1000      0.1000    
       0.1000      0.1000    
  14   1.0000E+30  1.0000E+30  1.0000E+30  1.0000E+30  1.0000E+30  1.0000E+30  1.0000E+30  1.0000E+30  1.0000E+30  1.0000E+30
       1.0000E+30  1.0000E+30  1.0000E+30  1.0000E+30  1.0000E+30  1.0000E+30  1.0000E+30  1.0000E+30  1.0000E+30  1.0000E+30
       1.0000E+30  1.0000E+30  1.0000E+30  1.0000E+30  1.0000E+30  1.0000E+30   16.51       9.650       7.402       5.905    
        5.121       4.247       3.220       2.199       1.280      0.6879      0.4385      0.1000      0.1000      0.1000    
       0.1000      0.1000    
  15   1.0000E+30  1.0000E+30  1.0000E+30  1.0000E+30  1.0000E+30  1.0000E+30  1.0000E+30  1.0000E+30  1.0000E+30  1.0000E+30
       1.0000E+30  1.0000E+30  1.0000E+30  1.0000E+30  1.0000E+30  1.0000E+30  1.0000E+30  1.0000E+30  1.0000E+30  1.0000E+30
       1.0000E+30  1.0000E+30  1.0000E+30  1.0000E+30  1.0000E+30   26.20       21.38       13.46       9.685       7.858    
        6.447       5.011       3.436       2.175       1.306      0.7277      0.4954      0.1000      0.1000      0.1000    
       0.1000      0.1000    
  16   1.0000E+30  1.0000E+30  1.0000E+30  1.0000E+30  1.0000E+30  1.0000E+30  1.0000E+30  1.0000E+30  1.0000E+30  1.0000E+30
       1.0000E+30  1.0000E+30  1.0000E+30  1.0000E+30  1.0000E+30  1.0000E+30  1.0000E+30  1.0000E+30  1.0000E+30  1.0000E+30
       1.0000E+30  1.0000E+30  1.0000E+30   34.22       31.72       25.39       22.21       18.31       15.00       14.00    
        12.00       9.000       4.333       2.171       1.044      0.6436      0.5826      0.1000      0.1000      0.1000    
       0.1000      0.1000    
  17   1.0000E+30  1.0000E+30  1.0000E+30  1.0000E+30  1.0000E+30  1.0000E+30  1.0000E+30  1.0000E+30  1.0000E+30  1.0000E+30
       1.0000E+30  1.0000E+30  1.0000E+30  1.0000E+30  1.0000E+30  1.0000E+30  1.0000E+30  1.0000E+30   58.68       57.63    
        59.52       38.29       35.65       32.19       29.65       25.00       22.00       20.00       17.60       16.38    
       1.0000E+30  1.0000E+30  1.0000E+30  1.0000E+30  1.0000E+30  0.6736      0.6284      0.1000      0.1000      0.1000    
       0.1000      0.1000    
  18   1.0000E+30  1.0000E+30  1.0000E+30  1.0000E+30  1.0000E+30  1.0000E+30   101.7       99.75       97.84       99.00    
        95.22       88.61       91.18       85.14       79.08       71.98       69.18       59.94       52.11       48.78    
        44.26       38.51       34.00       32.00       29.00       27.84      1.0000E+30  1.0000E+30  1.0000E+30  1.0000E+30
       1.0000E+30  1.0000E+30  1.0000E+30  1.0000E+30   1.085      0.7012      0.6587      0.1000      0.1000      0.1000    
       0.1000      0.1000    
  19   1.0000E+30  1.0000E+30  1.0000E+30  1.0000E+30   117.8       103.0       100.5       98.27       94.95       91.77    
        89.41       87.02       84.01       82.16       76.75       70.18       62.57       58.98       51.00       47.00    
        42.00       40.91       37.96       33.93       30.77      1.0000E+30  1.0000E+30  1.0000E+30  1.0000E+30  1.0000E+30
       1.0000E+30  1.0000E+30  1.0000E+30  1.0000E+30   1.578      1.0000E+30  0.6681      0.1000      0.1000      0.1000    
       0.1000      0.1000    
  20   1.0000E+30  1.0000E+30  1.0000E+30   117.1       110.8       103.0       100.9       98.31       95.33       92.32    
        89.77       87.81       84.01       80.00       75.00       68.00       64.00       60.00       57.25       53.90    
        50.93       48.19       42.53       36.48       32.71      1.0000E+30  1.0000E+30  1.0000E+30  1.0000E+30  1.0000E+30
       1.0000E+30  1.0000E+30  1.0000E+30  1.0000E+30   1.776      0.1000      0.1000      0.1000      0.1000      0.1000    
       0.1000      0.1000    
  21   1.0000E+30   133.6       128.5       119.1       109.4       103.2       101.3       98.74       95.94       93.04    
        90.67       88.65       86.76       83.09       78.18       72.92       68.26       63.60       60.43       58.23    
        55.70       54.27       50.60      1.0000E+30  1.0000E+30  1.0000E+30  1.0000E+30  1.0000E+30  1.0000E+30  1.0000E+30
       1.0000E+30  1.0000E+30  1.0000E+30  1.0000E+30   2.754      0.1000      0.1000      0.1000      0.1000      0.1000    
       0.1000      0.1000    
  22    150.4       140.3       133.4       126.9       118.4       111.5       112.5       109.2       107.4       102.9    
        91.09       89.91       88.38       84.83       81.41       76.52       71.44       66.98       62.41       59.78    
        58.06       56.02       54.30      1.0000E+30  1.0000E+30  1.0000E+30  1.0000E+30  1.0000E+30  1.0000E+30  1.0000E+30
       1.0000E+30  1.0000E+30   6.427       5.322       4.137       3.889      0.1000      0.1000      0.1000      0.1000    
       0.1000      0.1000    
  23    148.6       148.1       142.9       138.8      1.0000E+30  1.0000E+30  1.0000E+30  1.0000E+30  1.0000E+30   112.7    
        100.7       92.25       87.98       86.05       83.68       79.84       74.57       69.97       65.65       61.70    
        60.06      1.0000E+30  1.0000E+30  1.0000E+30  1.0000E+30  1.0000E+30  1.0000E+30  1.0000E+30   16.00       14.00    
        11.97       7.939       5.633       5.000       4.368       4.059      0.1000      0.1000      0.1000      0.1000    
       0.1000      0.1000    
  24    150.8      1.0000E+30  1.0000E+30  1.0000E+30  1.0000E+30  1.0000E+30  1.0000E+30  1.0000E+30  1.0000E+30  1.0000E+30
       1.0000E+30   108.4       92.74       86.33       85.73       85.79       89.51      1.0000E+30  1.0000E+30  1.0000E+30
       1.0000E+30  1.0000E+30  1.0000E+30  1.0000E+30  1.0000E+30  1.0000E+30  1.0000E+30  1.0000E+30  1.0000E+30   12.94    
        10.00       7.290       5.604       5.000       4.502       4.142       3.806      0.1000      0.1000      0.1000    
       0.1000      0.1000    
  25   1.0000E+30  1.0000E+30  1.0000E+30  1.0000E+30  1.0000E+30  1.0000E+30  1.0000E+30  1.0000E+30  1.0000E+30  1.0000E+30
       1.0000E+30  1.0000E+30  1.0000E+30   91.41       89.27      1.0000E+30  1.0000E+30  1.0000E+30  1.0000E+30  1.0000E+30
       1.0000E+30  1.0000E+30  1.0000E+30  1.0000E+30  1.0000E+30  1.0000E+30  1.0000E+30  1.0000E+30   15.20       13.66    
        9.426       6.525       5.815       5.188       4.638       4.195       3.852      0.1000      0.1000      0.1000    
       0.1000      0.1000    
  26   1.0000E+30  1.0000E+30  1.0000E+30  1.0000E+30  1.0000E+30  1.0000E+30  1.0000E+30  1.0000E+30  1.0000E+30  1.0000E+30
       1.0000E+30  1.0000E+30  1.0000E+30  1.0000E+30  1.0000E+30  1.0000E+30  1.0000E+30  1.0000E+30  1.0000E+30  1.0000E+30
       1.0000E+30  1.0000E+30  1.0000E+30  1.0000E+30  1.0000E+30  1.0000E+30  1.0000E+30  1.0000E+30   14.80       14.53    
       1.0000E+30   6.494       5.936       5.318       4.806       4.124       3.690      0.1000      0.1000      0.1000    
       0.1000      0.1000    
  27   1.0000E+30  1.0000E+30  1.0000E+30  1.0000E+30  1.0000E+30  1.0000E+30  1.0000E+30  1.0000E+30  1.0000E+30  1.0000E+30
       1.0000E+30  1.0000E+30  1.0000E+30  1.0000E+30  1.0000E+30  1.0000E+30  1.0000E+30  1.0000E+30  1.0000E+30  1.0000E+30
       1.0000E+30  1.0000E+30  1.0000E+30  1.0000E+30  1.0000E+30  1.0000E+30  1.0000E+30  1.0000E+30   14.11       12.90    
        9.420       6.855       6.153       5.120      1.0000E+30   3.787       3.406      0.1000      0.1000      0.1000    
       0.1000      0.1000    
  28   1.0000E+30  1.0000E+30  1.0000E+30  1.0000E+30  1.0000E+30  1.0000E+30  1.0000E+30  1.0000E+30  1.0000E+30  1.0000E+30
       1.0000E+30  1.0000E+30  1.0000E+30  1.0000E+30  1.0000E+30  1.0000E+30  1.0000E+30  1.0000E+30  1.0000E+30  1.0000E+30
       1.0000E+30  1.0000E+30  1.0000E+30  1.0000E+30  1.0000E+30  1.0000E+30  1.0000E+30  1.0000E+30  1.0000E+30   12.60    
        10.63       7.933       6.665      1.0000E+30  1.0000E+30   3.426       3.131      0.1000      0.1000      0.1000    
       0.1000      0.1000    
  29   1.0000E+30  1.0000E+30  1.0000E+30  1.0000E+30  1.0000E+30  1.0000E+30  1.0000E+30  1.0000E+30  1.0000E+30  1.0000E+30
       1.0000E+30  1.0000E+30  1.0000E+30  1.0000E+30  1.0000E+30  1.0000E+30  1.0000E+30  1.0000E+30  1.0000E+30  1.0000E+30
       1.0000E+30  1.0000E+30  1.0000E+30  1.0000E+30  1.0000E+30  1.0000E+30  1.0000E+30  1.0000E+30  1.0000E+30  1.0000E+30
        12.43       11.07      1.0000E+30   6.500       4.193       2.716       2.948       2.800      0.1000      0.1000    
       0.1000      0.1000    
  30   1.0000E+30  1.0000E+30  1.0000E+30  1.0000E+30  1.0000E+30  1.0000E+30  1.0000E+30  1.0000E+30  1.0000E+30  1.0000E+30
       1.0000E+30  1.0000E+30  1.0000E+30  1.0000E+30  1.0000E+30  1.0000E+30  1.0000E+30  1.0000E+30  1.0000E+30  1.0000E+30
       1.0000E+30  1.0000E+30  1.0000E+30  1.0000E+30  1.0000E+30  1.0000E+30  1.0000E+30  1.0000E+30  1.0000E+30  1.0000E+30
        15.14       14.00       12.01       8.428       4.811       3.324       3.173       3.037      0.1000      0.1000    
       0.1000      0.1000    
  31   1.0000E+30  1.0000E+30  1.0000E+30  1.0000E+30  1.0000E+30  1.0000E+30  1.0000E+30  1.0000E+30  1.0000E+30  1.0000E+30
       1.0000E+30  1.0000E+30  1.0000E+30  1.0000E+30  1.0000E+30  1.0000E+30  1.0000E+30  1.0000E+30  1.0000E+30  1.0000E+30
       1.0000E+30  1.0000E+30  1.0000E+30  1.0000E+30  1.0000E+30  1.0000E+30  1.0000E+30  1.0000E+30  1.0000E+30   22.92    
        18.00       16.17       12.00       6.987       5.495       3.924       3.626       3.353      0.1000      0.1000    
       0.1000      0.1000    
  32   1.0000E+30  1.0000E+30  1.0000E+30  1.0000E+30  1.0000E+30  1.0000E+30  1.0000E+30  1.0000E+30  1.0000E+30  1.0000E+30
       1.0000E+30  1.0000E+30  1.0000E+30  1.0000E+30  1.0000E+30  1.0000E+30  1.0000E+30  1.0000E+30  1.0000E+30  1.0000E+30
       1.0000E+30  1.0000E+30  1.0000E+30  1.0000E+30  1.0000E+30  1.0000E+30  1.0000E+30   31.31       29.00       27.94    
        26.72       25.47       25.12       22.27       8.131       4.725       4.209       3.689      0.1000      0.1000    
       0.1000      0.1000    
  33   1.0000E+30  1.0000E+30  1.0000E+30  1.0000E+30  1.0000E+30  1.0000E+30  1.0000E+30  1.0000E+30  1.0000E+30  1.0000E+30
       1.0000E+30  1.0000E+30  1.0000E+30  1.0000E+30  1.0000E+30  1.0000E+30  1.0000E+30  1.0000E+30  1.0000E+30  1.0000E+30
       1.0000E+30  1.0000E+30  1.0000E+30  1.0000E+30  1.0000E+30  1.0000E+30   37.00       35.81       31.20       36.44    
        36.63       35.54       33.56       24.67       12.72       6.315       4.896       4.104      0.1000      0.1000    
       0.1000      0.1000    
  34   1.0000E+30  1.0000E+30  1.0000E+30  1.0000E+30  1.0000E+30  1.0000E+30  1.0000E+30  1.0000E+30  1.0000E+30  1.0000E+30
       1.0000E+30  1.0000E+30  1.0000E+30  1.0000E+30  1.0000E+30  1.0000E+30  1.0000E+30  1.0000E+30  1.0000E+30  1.0000E+30
       1.0000E+30  1.0000E+30  1.0000E+30  1.0000E+30  1.0000E+30   46.67       40.86       41.48       44.06       46.66    
        45.50       42.01       35.19       25.41       16.59       7.992       5.668       4.359      0.1000      0.1000    
       0.1000      0.1000    
  35   1.0000E+30  1.0000E+30  1.0000E+30  1.0000E+30  1.0000E+30  1.0000E+30  1.0000E+30  1.0000E+30  1.0000E+30  1.0000E+30
       1.0000E+30  1.0000E+30  1.0000E+30  1.0000E+30  1.0000E+30  1.0000E+30  1.0000E+30  1.0000E+30  1.0000E+30  1.0000E+30
       1.0000E+30  1.0000E+30  1.0000E+30  1.0000E+30   57.69       54.92       50.81       50.76       52.98       53.02    
        50.89       46.06       37.62       29.19       24.72      1.0000E+30   5.054       4.452      0.1000      0.1000    
       0.1000      0.1000    
  36   1.0000E+30  1.0000E+30  1.0000E+30  1.0000E+30  1.0000E+30  1.0000E+30  1.0000E+30  1.0000E+30  1.0000E+30  1.0000E+30
       1.0000E+30  1.0000E+30  1.0000E+30  1.0000E+30  1.0000E+30  1.0000E+30  1.0000E+30  1.0000E+30  1.0000E+30  1.0000E+30
       1.0000E+30  1.0000E+30  1.0000E+30  1.0000E+30   59.52       60.41       64.05       62.66       58.54       56.99    
        54.22       49.66       41.87       33.03       28.89      1.0000E+30  1.0000E+30  1.0000E+30  1.0000E+30  0.1000    
       0.1000      0.1000    
  37   1.0000E+30  1.0000E+30  1.0000E+30  1.0000E+30  1.0000E+30  1.0000E+30  1.0000E+30  1.0000E+30  1.0000E+30  1.0000E+30
       1.0000E+30  1.0000E+30  1.0000E+30  1.0000E+30  1.0000E+30  1.0000E+30  1.0000E+30  1.0000E+30  1.0000E+30  1.0000E+30
       1.0000E+30  1.0000E+30  1.0000E+30  1.0000E+30  1.0000E+30   63.50       63.93       63.57       61.66       59.37    
        56.67       53.64       50.19      1.0000E+30  1.0000E+30  1.0000E+30  1.0000E+30  1.0000E+30  1.0000E+30  1.0000E+30
       1.0000E+30  1.0000E+30
  38   1.0000E+30  1.0000E+30  1.0000E+30  1.0000E+30  1.0000E+30  1.0000E+30  1.0000E+30  1.0000E+30  1.0000E+30  1.0000E+30
       1.0000E+30  1.0000E+30  1.0000E+30  1.0000E+30  1.0000E+30  1.0000E+30  1.0000E+30  1.0000E+30  1.0000E+30  1.0000E+30
       1.0000E+30  1.0000E+30  1.0000E+30  1.0000E+30  1.0000E+30  1.0000E+30  1.0000E+30  1.0000E+30  1.0000E+30  1.0000E+30
       1.0000E+30  1.0000E+30  1.0000E+30  1.0000E+30  1.0000E+30  1.0000E+30  1.0000E+30  1.0000E+30  1.0000E+30  1.0000E+30
       1.0000E+30  1.0000E+30
1
  HEAD IN LAYER   2 AT END OF TIME STEP   1 IN STRESS PERIOD    1
  ---------------------------------------------------------------------------

            1           2           3           4           5           6           7           8           9          10
           11          12          13          14          15          16          17          18          19          20
           21          22          23          24          25          26          27          28          29          30
           31          32          33          34          35          36          37          38          39          40
           41          42
 ........................................................................................................................
   1   1.0000E+30  1.0000E+30  1.0000E+30  1.0000E+30  1.0000E+30  1.0000E+30  1.0000E+30  1.0000E+30  1.0000E+30  1.0000E+30
       1.0000E+30  1.0000E+30  1.0000E+30  1.0000E+30  1.0000E+30  1.0000E+30  1.0000E+30  1.0000E+30  1.0000E+30  1.0000E+30
       1.0000E+30  1.0000E+30  1.0000E+30  1.0000E+30  1.0000E+30  1.0000E+30  1.0000E+30  1.0000E+30  1.0000E+30   3.410    
        2.659       1.974      0.7941      0.6080      0.4536      0.3187      0.1772      4.3883E-02  5.8057E-02  9.7671E-02
       0.1242      0.1365    
   2   1.0000E+30  1.0000E+30  1.0000E+30  1.0000E+30  1.0000E+30  1.0000E+30  1.0000E+30  1.0000E+30  1.0000E+30  1.0000E+30
       1.0000E+30  1.0000E+30  1.0000E+30  1.0000E+30  1.0000E+30  1.0000E+30  1.0000E+30  1.0000E+30  1.0000E+30  1.0000E+30
       1.0000E+30  1.0000E+30  1.0000E+30  1.0000E+30  1.0000E+30  1.0000E+30  1.0000E+30  1.0000E+30   4.436       3.414    
        2.951       1.033      0.7443      0.5617      0.4346      0.3151      0.1541     -0.1051      1.6892E-02  9.2155E-02
       0.1248      0.1378    
   3   1.0000E+30  1.0000E+30  1.0000E+30  1.0000E+30  1.0000E+30  1.0000E+30  1.0000E+30  1.0000E+30  1.0000E+30  1.0000E+30
       1.0000E+30  1.0000E+30  1.0000E+30  1.0000E+30  1.0000E+30  1.0000E+30  1.0000E+30  1.0000E+30  1.0000E+30  1.0000E+30
       1.0000E+30  1.0000E+30  1.0000E+30  1.0000E+30  1.0000E+30  1.0000E+30  1.0000E+30   5.616       4.240       3.451    
        3.037       1.085      0.7400      0.5396      0.4238      0.3338      0.2110      6.0308E-02  7.6656E-02  0.1107    
       0.1318      0.1414    
   4   1.0000E+30  1.0000E+30  1.0000E+30  1.0000E+30  1.0000E+30  1.0000E+30  1.0000E+30  1.0000E+30  1.0000E+30  1.0000E+30
       1.0000E+30  1.0000E+30  1.0000E+30  1.0000E+30  1.0000E+30  1.0000E+30  1.0000E+30  1.0000E+30  1.0000E+30  1.0000E+30
       1.0000E+30  1.0000E+30  1.0000E+30  1.0000E+30  1.0000E+30  1.0000E+30   8.863       6.240       4.284       3.588    
        2.972       2.383      0.7616      0.5460      0.4094      0.3155      0.2240      9.0881E-02  0.1095      0.1276    
       0.1396      0.1456    
   5   1.0000E+30  1.0000E+30  1.0000E+30  1.0000E+30  1.0000E+30  1.0000E+30  1.0000E+30  1.0000E+30  1.0000E+30  1.0000E+30
       1.0000E+30  1.0000E+30  1.0000E+30  1.0000E+30  1.0000E+30  1.0000E+30  1.0000E+30  1.0000E+30  1.0000E+30  1.0000E+30
       1.0000E+30  1.0000E+30  1.0000E+30  1.0000E+30   21.49       16.16       10.26       7.080       4.877       3.683    
        3.018       2.386      0.6860      0.4813      0.3674      0.2795      0.2111      0.1548      0.1401      0.1403    
       0.1456      0.1494    
   6   1.0000E+30  1.0000E+30  1.0000E+30  1.0000E+30  1.0000E+30  1.0000E+30  1.0000E+30  1.0000E+30  1.0000E+30  1.0000E+30
       1.0000E+30  1.0000E+30  1.0000E+30  1.0000E+30  1.0000E+30  1.0000E+30  1.0000E+30  1.0000E+30  1.0000E+30  1.0000E+30
       1.0000E+30  1.0000E+30  1.0000E+30   24.51       21.06       15.11       9.865       7.198       5.434       3.996    
        3.055       2.279       1.727      0.3840      0.2740      0.2101      0.1777      0.1467      0.1378      0.1408    
       0.1475      0.1518    
   7   1.0000E+30  1.0000E+30  1.0000E+30  1.0000E+30  1.0000E+30  1.0000E+30  1.0000E+30  1.0000E+30  1.0000E+30  1.0000E+30
       1.0000E+30  1.0000E+30  1.0000E+30  1.0000E+30  1.0000E+30  1.0000E+30  1.0000E+30  1.0000E+30  1.0000E+30  1.0000E+30
       1.0000E+30  1.0000E+30   26.52       24.06       21.16       14.65       9.988       7.417       5.761       4.209    
        3.032       2.193       1.621       1.068      0.1212      0.1113      0.1108      0.1033      0.1146      0.1323    
       0.1460      0.1531    
   8   1.0000E+30  1.0000E+30  1.0000E+30  1.0000E+30  1.0000E+30  1.0000E+30  1.0000E+30  1.0000E+30  1.0000E+30  1.0000E+30
       1.0000E+30  1.0000E+30  1.0000E+30  1.0000E+30  1.0000E+30  1.0000E+30  1.0000E+30  1.0000E+30  1.0000E+30  1.0000E+30
       1.0000E+30   25.53       24.54       21.95       19.12       15.96       10.62       8.099       6.023       4.166    
        3.080       2.121       1.450      0.9930      0.7241      2.1740E-02  0.3076      4.5441E-02  8.2373E-02  0.1204    
       0.1433      0.1540    
   9   1.0000E+30  1.0000E+30  1.0000E+30  1.0000E+30  1.0000E+30  1.0000E+30  1.0000E+30  1.0000E+30  1.0000E+30  1.0000E+30
       1.0000E+30  1.0000E+30  1.0000E+30  1.0000E+30  1.0000E+30  1.0000E+30  1.0000E+30  1.0000E+30  1.0000E+30  1.0000E+30
        26.34       22.18       22.21       20.46       18.44       15.50       11.76       8.660       6.292       4.391    
        3.082       1.991       1.314      0.8813      0.5905      0.3907      0.1748     -1.4597E-02  5.1901E-02  0.1099    
       0.1411      0.1551    
  10   1.0000E+30  1.0000E+30  1.0000E+30  1.0000E+30  1.0000E+30  1.0000E+30  1.0000E+30  1.0000E+30  1.0000E+30  1.0000E+30
       1.0000E+30  1.0000E+30  1.0000E+30  1.0000E+30  1.0000E+30  1.0000E+30  1.0000E+30  1.0000E+30  1.0000E+30  1.0000E+30
       1.0000E+30   24.01       22.24       19.58       17.56       15.39       12.31       9.526       6.797       4.660    
        3.123       1.826       1.114      0.6759      0.5158      0.3553      0.2590     -1.5026E-02  4.4358E-02  0.1061    
       0.1415      0.1576    
  11   1.0000E+30  1.0000E+30  1.0000E+30  1.0000E+30  1.0000E+30  1.0000E+30  1.0000E+30  1.0000E+30  1.0000E+30  1.0000E+30
       1.0000E+30  1.0000E+30  1.0000E+30  1.0000E+30  1.0000E+30  1.0000E+30  1.0000E+30  1.0000E+30  1.0000E+30  1.0000E+30
       1.0000E+30  1.0000E+30  1.0000E+30   19.66       17.97       15.96       13.00       9.666       6.215       4.527    
        3.142       2.122       1.291      0.7528      0.4229      0.2942      0.2506     -1.7096E-02  4.1715E-02  0.1058    
       0.1440      0.1617    
  12   1.0000E+30  1.0000E+30  1.0000E+30  1.0000E+30  1.0000E+30  1.0000E+30  1.0000E+30  1.0000E+30  1.0000E+30  1.0000E+30
       1.0000E+30  1.0000E+30  1.0000E+30  1.0000E+30  1.0000E+30  1.0000E+30  1.0000E+30  1.0000E+30  1.0000E+30  1.0000E+30
       1.0000E+30  1.0000E+30  1.0000E+30  1.0000E+30  1.0000E+30  1.0000E+30   15.19       9.590       6.181       4.807    
        3.484       2.365       1.521      0.7302      0.2506      0.2239      0.1859     -2.7094E-02  3.7031E-02  0.1056    
       0.1481      0.1684    
  13   1.0000E+30  1.0000E+30  1.0000E+30  1.0000E+30  1.0000E+30  1.0000E+30  1.0000E+30  1.0000E+30  1.0000E+30  1.0000E+30
       1.0000E+30  1.0000E+30  1.0000E+30  1.0000E+30  1.0000E+30  1.0000E+30  1.0000E+30  1.0000E+30  1.0000E+30  1.0000E+30
       1.0000E+30  1.0000E+30  1.0000E+30  1.0000E+30  1.0000E+30  1.0000E+30   15.63       8.936       6.391       4.975    
        3.671       2.689       1.837      0.9995      0.4022      0.1687      0.1100     -3.6793E-02  2.7447E-02  0.1023    
       0.1538      0.1784    
  14   1.0000E+30  1.0000E+30  1.0000E+30  1.0000E+30  1.0000E+30  1.0000E+30  1.0000E+30  1.0000E+30  1.0000E+30  1.0000E+30
       1.0000E+30  1.0000E+30  1.0000E+30  1.0000E+30  1.0000E+30  1.0000E+30  1.0000E+30  1.0000E+30  1.0000E+30  1.0000E+30
       1.0000E+30  1.0000E+30  1.0000E+30  1.0000E+30  1.0000E+30  1.0000E+30  1.0000E+30   8.826       7.123       5.495    
        4.123       3.049       2.028       1.052      0.4348      9.7534E-02  3.6818E-02 -7.2725E-02 -1.9442E-02  8.7373E-02
       0.1591      0.1907    
  15   1.0000E+30  1.0000E+30  1.0000E+30  1.0000E+30  1.0000E+30  1.0000E+30  1.0000E+30  1.0000E+30  1.0000E+30  1.0000E+30
       1.0000E+30  1.0000E+30  1.0000E+30  1.0000E+30  1.0000E+30  1.0000E+30  1.0000E+30  1.0000E+30  1.0000E+30  1.0000E+30
       1.0000E+30  1.0000E+30  1.0000E+30  1.0000E+30  1.0000E+30  1.0000E+30  1.0000E+30  1.0000E+30   8.302       6.682    
        4.911       3.498       2.015      0.4763      0.2058     -0.1374     -4.2420E-03 -0.1123     -0.1516      6.5346E-02
       0.1652      0.2060    
  16   1.0000E+30  1.0000E+30  1.0000E+30  1.0000E+30  1.0000E+30  1.0000E+30  1.0000E+30  1.0000E+30  1.0000E+30  1.0000E+30
       1.0000E+30  1.0000E+30  1.0000E+30  1.0000E+30  1.0000E+30  1.0000E+30  1.0000E+30  1.0000E+30  1.0000E+30  1.0000E+30
       1.0000E+30  1.0000E+30  1.0000E+30  1.0000E+30  1.0000E+30  1.0000E+30  1.0000E+30  1.0000E+30  1.0000E+30  1.0000E+30
        7.823       5.617       2.536      0.8246     -7.0292E-02 -7.9321E-02  6.9942E-02 -7.7527E-02 -7.2980E-03  0.1103    
       0.1918      0.2304    
  17   1.0000E+30  1.0000E+30  1.0000E+30  1.0000E+30  1.0000E+30  1.0000E+30  1.0000E+30  1.0000E+30  1.0000E+30  1.0000E+30
       1.0000E+30  1.0000E+30  1.0000E+30  1.0000E+30  1.0000E+30  1.0000E+30  1.0000E+30  1.0000E+30  1.0000E+30  1.0000E+30
       1.0000E+30  1.0000E+30  1.0000E+30  1.0000E+30  1.0000E+30  1.0000E+30  1.0000E+30  1.0000E+30  1.0000E+30  1.0000E+30
       1.0000E+30  1.0000E+30  1.0000E+30  1.0000E+30  1.0000E+30  8.0967E-02  0.1434     -2.8099E-02  5.3988E-02  0.1472    
       0.2217      0.2567    
  18   1.0000E+30  1.0000E+30  1.0000E+30  1.0000E+30  1.0000E+30  1.0000E+30  1.0000E+30  1.0000E+30  1.0000E+30  1.0000E+30
       1.0000E+30  1.0000E+30  1.0000E+30  1.0000E+30  1.0000E+30  1.0000E+30  1.0000E+30  1.0000E+30  1.0000E+30  1.0000E+30
       1.0000E+30  1.0000E+30  1.0000E+30  1.0000E+30  1.0000E+30  1.0000E+30  1.0000E+30  1.0000E+30  1.0000E+30  1.0000E+30
       1.0000E+30  1.0000E+30  1.0000E+30  1.0000E+30  1.0000E+30  1.0000E+30  1.0000E+30  3.2828E-02  9.0427E-02  0.1690    
       0.2375      0.2743    
  19   1.0000E+30  1.0000E+30  1.0000E+30  1.0000E+30  1.0000E+30  1.0000E+30  1.0000E+30  1.0000E+30  1.0000E+30  1.0000E+30
       1.0000E+30  1.0000E+30  1.0000E+30  1.0000E+30  1.0000E+30  1.0000E+30  1.0000E+30  1.0000E+30  1.0000E+30  1.0000E+30
       1.0000E+30  1.0000E+30  1.0000E+30  1.0000E+30  1.0000E+30  1.0000E+30  1.0000E+30  1.0000E+30  1.0000E+30  1.0000E+30
       1.0000E+30  1.0000E+30  1.0000E+30  1.0000E+30  1.0000E+30  1.0000E+30  1.0000E+30  1.0000E+30  1.0000E+30  1.0000E+30
       1.0000E+30  1.0000E+30
  20   1.0000E+30  1.0000E+30  1.0000E+30  1.0000E+30  1.0000E+30  1.0000E+30  1.0000E+30  1.0000E+30  1.0000E+30  1.0000E+30
       1.0000E+30  1.0000E+30  1.0000E+30  1.0000E+30  1.0000E+30  1.0000E+30  1.0000E+30  1.0000E+30  1.0000E+30  1.0000E+30
       1.0000E+30  1.0000E+30  1.0000E+30  1.0000E+30  1.0000E+30  1.0000E+30  1.0000E+30  1.0000E+30  1.0000E+30  1.0000E+30
       1.0000E+30  1.0000E+30  1.0000E+30  1.0000E+30  1.0000E+30  1.0000E+30  1.0000E+30  1.0000E+30  1.0000E+30  1.0000E+30
       1.0000E+30  1.0000E+30
  21   1.0000E+30  1.0000E+30  1.0000E+30  1.0000E+30  1.0000E+30  1.0000E+30  1.0000E+30  1.0000E+30  1.0000E+30  1.0000E+30
       1.0000E+30  1.0000E+30  1.0000E+30  1.0000E+30  1.0000E+30  1.0000E+30  1.0000E+30  1.0000E+30  1.0000E+30  1.0000E+30
       1.0000E+30  1.0000E+30  1.0000E+30  1.0000E+30  1.0000E+30  1.0000E+30  1.0000E+30  1.0000E+30  1.0000E+30  1.0000E+30
       1.0000E+30  1.0000E+30  1.0000E+30  1.0000E+30  1.0000E+30  1.0000E+30  1.0000E+30  1.0000E+30  1.0000E+30  1.0000E+30
       1.0000E+30  1.0000E+30
  22   1.0000E+30  1.0000E+30  1.0000E+30  1.0000E+30  1.0000E+30  1.0000E+30  1.0000E+30  1.0000E+30  1.0000E+30  1.0000E+30
       1.0000E+30  1.0000E+30  1.0000E+30  1.0000E+30  1.0000E+30  1.0000E+30  1.0000E+30  1.0000E+30  1.0000E+30  1.0000E+30
       1.0000E+30  1.0000E+30  1.0000E+30  1.0000E+30  1.0000E+30  1.0000E+30  1.0000E+30  1.0000E+30  1.0000E+30  1.0000E+30
       1.0000E+30  1.0000E+30  1.0000E+30  1.0000E+30  1.0000E+30  1.0000E+30  1.0000E+30  1.0000E+30  1.0000E+30  1.0000E+30
       1.0000E+30  1.0000E+30
  23   1.0000E+30  1.0000E+30  1.0000E+30  1.0000E+30  1.0000E+30  1.0000E+30  1.0000E+30  1.0000E+30  1.0000E+30  1.0000E+30
       1.0000E+30  1.0000E+30  1.0000E+30  1.0000E+30  1.0000E+30  1.0000E+30  1.0000E+30  1.0000E+30  1.0000E+30  1.0000E+30
       1.0000E+30  1.0000E+30  1.0000E+30  1.0000E+30  1.0000E+30  1.0000E+30  1.0000E+30  1.0000E+30  1.0000E+30  1.0000E+30
       1.0000E+30  1.0000E+30  1.0000E+30  1.0000E+30  1.0000E+30  1.0000E+30  1.0000E+30  1.0000E+30  1.0000E+30  1.0000E+30
       1.0000E+30  1.0000E+30
  24   1.0000E+30  1.0000E+30  1.0000E+30  1.0000E+30  1.0000E+30  1.0000E+30  1.0000E+30  1.0000E+30  1.0000E+30  1.0000E+30
       1.0000E+30  1.0000E+30  1.0000E+30  1.0000E+30  1.0000E+30  1.0000E+30  1.0000E+30  1.0000E+30  1.0000E+30  1.0000E+30
       1.0000E+30  1.0000E+30  1.0000E+30  1.0000E+30  1.0000E+30  1.0000E+30  1.0000E+30  1.0000E+30  1.0000E+30  1.0000E+30
       1.0000E+30  1.0000E+30  1.0000E+30  1.0000E+30  1.0000E+30  1.0000E+30  1.0000E+30  1.0000E+30  1.0000E+30  1.0000E+30
       1.0000E+30  1.0000E+30
  25   1.0000E+30  1.0000E+30  1.0000E+30  1.0000E+30  1.0000E+30  1.0000E+30  1.0000E+30  1.0000E+30  1.0000E+30  1.0000E+30
       1.0000E+30  1.0000E+30  1.0000E+30  1.0000E+30  1.0000E+30  1.0000E+30  1.0000E+30  1.0000E+30  1.0000E+30  1.0000E+30
       1.0000E+30  1.0000E+30  1.0000E+30  1.0000E+30  1.0000E+30  1.0000E+30  1.0000E+30  1.0000E+30  1.0000E+30  1.0000E+30
       1.0000E+30  1.0000E+30  1.0000E+30  1.0000E+30  1.0000E+30  1.0000E+30  1.0000E+30  1.0000E+30  1.0000E+30  1.0000E+30
       1.0000E+30  1.0000E+30
  26   1.0000E+30  1.0000E+30  1.0000E+30  1.0000E+30  1.0000E+30  1.0000E+30  1.0000E+30  1.0000E+30  1.0000E+30  1.0000E+30
       1.0000E+30  1.0000E+30  1.0000E+30  1.0000E+30  1.0000E+30  1.0000E+30  1.0000E+30  1.0000E+30  1.0000E+30  1.0000E+30
       1.0000E+30  1.0000E+30  1.0000E+30  1.0000E+30  1.0000E+30  1.0000E+30  1.0000E+30  1.0000E+30  1.0000E+30  1.0000E+30
       1.0000E+30  1.0000E+30  1.0000E+30  1.0000E+30  1.0000E+30  1.0000E+30  1.0000E+30  1.0000E+30  1.0000E+30  1.0000E+30
       1.0000E+30  1.0000E+30
  27   1.0000E+30  1.0000E+30  1.0000E+30  1.0000E+30  1.0000E+30  1.0000E+30  1.0000E+30  1.0000E+30  1.0000E+30  1.0000E+30
       1.0000E+30  1.0000E+30  1.0000E+30  1.0000E+30  1.0000E+30  1.0000E+30  1.0000E+30  1.0000E+30  1.0000E+30  1.0000E+30
       1.0000E+30  1.0000E+30  1.0000E+30  1.0000E+30  1.0000E+30  1.0000E+30  1.0000E+30  1.0000E+30  1.0000E+30  1.0000E+30
       1.0000E+30  1.0000E+30  1.0000E+30  1.0000E+30  1.0000E+30  1.0000E+30  1.0000E+30  1.0000E+30  1.0000E+30  1.0000E+30
       1.0000E+30  1.0000E+30
  28   1.0000E+30  1.0000E+30  1.0000E+30  1.0000E+30  1.0000E+30  1.0000E+30  1.0000E+30  1.0000E+30  1.0000E+30  1.0000E+30
       1.0000E+30  1.0000E+30  1.0000E+30  1.0000E+30  1.0000E+30  1.0000E+30  1.0000E+30  1.0000E+30  1.0000E+30  1.0000E+30
       1.0000E+30  1.0000E+30  1.0000E+30  1.0000E+30  1.0000E+30  1.0000E+30  1.0000E+30  1.0000E+30  1.0000E+30  1.0000E+30
       1.0000E+30  1.0000E+30  1.0000E+30  1.0000E+30  1.0000E+30  1.0000E+30  1.0000E+30  1.0000E+30  1.0000E+30  1.0000E+30
       1.0000E+30  1.0000E+30
  29   1.0000E+30  1.0000E+30  1.0000E+30  1.0000E+30  1.0000E+30  1.0000E+30  1.0000E+30  1.0000E+30  1.0000E+30  1.0000E+30
       1.0000E+30  1.0000E+30  1.0000E+30  1.0000E+30  1.0000E+30  1.0000E+30  1.0000E+30  1.0000E+30  1.0000E+30  1.0000E+30
       1.0000E+30  1.0000E+30  1.0000E+30  1.0000E+30  1.0000E+30  1.0000E+30  1.0000E+30  1.0000E+30  1.0000E+30  1.0000E+30
       1.0000E+30  1.0000E+30  1.0000E+30  1.0000E+30  1.0000E+30  1.0000E+30  1.0000E+30  1.0000E+30  1.0000E+30  1.0000E+30
       1.0000E+30  1.0000E+30
  30   1.0000E+30  1.0000E+30  1.0000E+30  1.0000E+30  1.0000E+30  1.0000E+30  1.0000E+30  1.0000E+30  1.0000E+30  1.0000E+30
       1.0000E+30  1.0000E+30  1.0000E+30  1.0000E+30  1.0000E+30  1.0000E+30  1.0000E+30  1.0000E+30  1.0000E+30  1.0000E+30
       1.0000E+30  1.0000E+30  1.0000E+30  1.0000E+30  1.0000E+30  1.0000E+30  1.0000E+30  1.0000E+30  1.0000E+30  1.0000E+30
       1.0000E+30  1.0000E+30  1.0000E+30  1.0000E+30  1.0000E+30  1.0000E+30  1.0000E+30  1.0000E+30  1.0000E+30  1.0000E+30
       1.0000E+30  1.0000E+30
  31   1.0000E+30  1.0000E+30  1.0000E+30  1.0000E+30  1.0000E+30  1.0000E+30  1.0000E+30  1.0000E+30  1.0000E+30  1.0000E+30
       1.0000E+30  1.0000E+30  1.0000E+30  1.0000E+30  1.0000E+30  1.0000E+30  1.0000E+30  1.0000E+30  1.0000E+30  1.0000E+30
       1.0000E+30  1.0000E+30  1.0000E+30  1.0000E+30  1.0000E+30  1.0000E+30  1.0000E+30  1.0000E+30  1.0000E+30  1.0000E+30
       1.0000E+30  1.0000E+30  1.0000E+30  1.0000E+30  1.0000E+30  1.0000E+30  1.0000E+30  1.0000E+30  1.0000E+30  1.0000E+30
       1.0000E+30  1.0000E+30
  32   1.0000E+30  1.0000E+30  1.0000E+30  1.0000E+30  1.0000E+30  1.0000E+30  1.0000E+30  1.0000E+30  1.0000E+30  1.0000E+30
       1.0000E+30  1.0000E+30  1.0000E+30  1.0000E+30  1.0000E+30  1.0000E+30  1.0000E+30  1.0000E+30  1.0000E+30  1.0000E+30
       1.0000E+30  1.0000E+30  1.0000E+30  1.0000E+30  1.0000E+30  1.0000E+30  1.0000E+30  1.0000E+30  1.0000E+30  1.0000E+30
       1.0000E+30  1.0000E+30  1.0000E+30  1.0000E+30  1.0000E+30  1.0000E+30  1.0000E+30  1.0000E+30  1.0000E+30  1.0000E+30
       1.0000E+30  1.0000E+30
  33   1.0000E+30  1.0000E+30  1.0000E+30  1.0000E+30  1.0000E+30  1.0000E+30  1.0000E+30  1.0000E+30  1.0000E+30  1.0000E+30
       1.0000E+30  1.0000E+30  1.0000E+30  1.0000E+30  1.0000E+30  1.0000E+30  1.0000E+30  1.0000E+30  1.0000E+30  1.0000E+30
       1.0000E+30  1.0000E+30  1.0000E+30  1.0000E+30  1.0000E+30  1.0000E+30  1.0000E+30  1.0000E+30  1.0000E+30  1.0000E+30
       1.0000E+30  1.0000E+30  1.0000E+30  1.0000E+30  1.0000E+30  1.0000E+30  1.0000E+30  1.0000E+30  1.0000E+30  1.0000E+30
       1.0000E+30  1.0000E+30
  34   1.0000E+30  1.0000E+30  1.0000E+30  1.0000E+30  1.0000E+30  1.0000E+30  1.0000E+30  1.0000E+30  1.0000E+30  1.0000E+30
       1.0000E+30  1.0000E+30  1.0000E+30  1.0000E+30  1.0000E+30  1.0000E+30  1.0000E+30  1.0000E+30  1.0000E+30  1.0000E+30
       1.0000E+30  1.0000E+30  1.0000E+30  1.0000E+30  1.0000E+30  1.0000E+30  1.0000E+30  1.0000E+30  1.0000E+30  1.0000E+30
       1.0000E+30  1.0000E+30  1.0000E+30  1.0000E+30  1.0000E+30  1.0000E+30  1.0000E+30  1.0000E+30  1.0000E+30  1.0000E+30
       1.0000E+30  1.0000E+30
  35   1.0000E+30  1.0000E+30  1.0000E+30  1.0000E+30  1.0000E+30  1.0000E+30  1.0000E+30  1.0000E+30  1.0000E+30  1.0000E+30
       1.0000E+30  1.0000E+30  1.0000E+30  1.0000E+30  1.0000E+30  1.0000E+30  1.0000E+30  1.0000E+30  1.0000E+30  1.0000E+30
       1.0000E+30  1.0000E+30  1.0000E+30  1.0000E+30  1.0000E+30  1.0000E+30  1.0000E+30  1.0000E+30  1.0000E+30  1.0000E+30
       1.0000E+30  1.0000E+30  1.0000E+30  1.0000E+30  1.0000E+30  1.0000E+30  1.0000E+30  1.0000E+30  1.0000E+30  1.0000E+30
       1.0000E+30  1.0000E+30
  36   1.0000E+30  1.0000E+30  1.0000E+30  1.0000E+30  1.0000E+30  1.0000E+30  1.0000E+30  1.0000E+30  1.0000E+30  1.0000E+30
       1.0000E+30  1.0000E+30  1.0000E+30  1.0000E+30  1.0000E+30  1.0000E+30  1.0000E+30  1.0000E+30  1.0000E+30  1.0000E+30
       1.0000E+30  1.0000E+30  1.0000E+30  1.0000E+30  1.0000E+30  1.0000E+30  1.0000E+30  1.0000E+30  1.0000E+30  1.0000E+30
       1.0000E+30  1.0000E+30  1.0000E+30  1.0000E+30  1.0000E+30  1.0000E+30  1.0000E+30  1.0000E+30  1.0000E+30  1.0000E+30
       1.0000E+30  1.0000E+30
  37   1.0000E+30  1.0000E+30  1.0000E+30  1.0000E+30  1.0000E+30  1.0000E+30  1.0000E+30  1.0000E+30  1.0000E+30  1.0000E+30
       1.0000E+30  1.0000E+30  1.0000E+30  1.0000E+30  1.0000E+30  1.0000E+30  1.0000E+30  1.0000E+30  1.0000E+30  1.0000E+30
       1.0000E+30  1.0000E+30  1.0000E+30  1.0000E+30  1.0000E+30  1.0000E+30  1.0000E+30  1.0000E+30  1.0000E+30  1.0000E+30
       1.0000E+30  1.0000E+30  1.0000E+30  1.0000E+30  1.0000E+30  1.0000E+30  1.0000E+30  1.0000E+30  1.0000E+30  1.0000E+30
       1.0000E+30  1.0000E+30
  38   1.0000E+30  1.0000E+30  1.0000E+30  1.0000E+30  1.0000E+30  1.0000E+30  1.0000E+30  1.0000E+30  1.0000E+30  1.0000E+30
       1.0000E+30  1.0000E+30  1.0000E+30  1.0000E+30  1.0000E+30  1.0000E+30  1.0000E+30  1.0000E+30  1.0000E+30  1.0000E+30
       1.0000E+30  1.0000E+30  1.0000E+30  1.0000E+30  1.0000E+30  1.0000E+30  1.0000E+30  1.0000E+30  1.0000E+30  1.0000E+30
       1.0000E+30  1.0000E+30  1.0000E+30  1.0000E+30  1.0000E+30  1.0000E+30  1.0000E+30  1.0000E+30  1.0000E+30  1.0000E+30
       1.0000E+30  1.0000E+30
1
  HEAD IN LAYER   3 AT END OF TIME STEP   1 IN STRESS PERIOD    1
  ---------------------------------------------------------------------------

            1           2           3           4           5           6           7           8           9          10
           11          12          13          14          15          16          17          18          19          20
           21          22          23          24          25          26          27          28          29          30
           31          32          33          34          35          36          37          38          39          40
           41          42
 ........................................................................................................................
   1   1.0000E+30  1.0000E+30  1.0000E+30  1.0000E+30  1.0000E+30  1.0000E+30  1.0000E+30  1.0000E+30  1.0000E+30  1.0000E+30
       1.0000E+30  1.0000E+30  1.0000E+30  1.0000E+30  1.0000E+30  1.0000E+30  1.0000E+30  1.0000E+30  1.0000E+30  1.0000E+30
       1.0000E+30  1.0000E+30  1.0000E+30  1.0000E+30  1.0000E+30  1.0000E+30  1.0000E+30  1.0000E+30   4.778       3.522    
        2.530       1.981       1.488       1.116      0.8073      0.5374      0.2544     -1.2213E-02  1.6137E-02  9.5357E-02
       0.1485      0.1730    
   2   1.0000E+30  1.0000E+30  1.0000E+30  1.0000E+30  1.0000E+30  1.0000E+30  1.0000E+30  1.0000E+30  1.0000E+30  1.0000E+30
       1.0000E+30  1.0000E+30  1.0000E+30  1.0000E+30  1.0000E+30  1.0000E+30  1.0000E+30  1.0000E+30  1.0000E+30  1.0000E+30
       1.0000E+30  1.0000E+30  1.0000E+30  1.0000E+30  1.0000E+30  1.0000E+30  1.0000E+30   6.112       4.428       3.427    
        2.781       1.965       1.389       1.023      0.7692      0.5303      0.2082     -0.3111     -6.6262E-02  8.4329E-02
       0.1496      0.1756    
   3   1.0000E+30  1.0000E+30  1.0000E+30  1.0000E+30  1.0000E+30  1.0000E+30  1.0000E+30  1.0000E+30  1.0000E+30  1.0000E+30
       1.0000E+30  1.0000E+30  1.0000E+30  1.0000E+30  1.0000E+30  1.0000E+30  1.0000E+30  1.0000E+30  1.0000E+30  1.0000E+30
       1.0000E+30  1.0000E+30  1.0000E+30  1.0000E+30  1.0000E+30  1.0000E+30  1.0000E+30   5.565       3.782       3.316    
        2.851       2.070       1.380      0.9792      0.7475      0.5676      0.3221      2.0594E-02  5.3329E-02  0.1213    
       0.1637      0.1827    
   4   1.0000E+30  1.0000E+30  1.0000E+30  1.0000E+30  1.0000E+30  1.0000E+30  1.0000E+30  1.0000E+30  1.0000E+30  1.0000E+30
       1.0000E+30  1.0000E+30  1.0000E+30  1.0000E+30  1.0000E+30  1.0000E+30  1.0000E+30  1.0000E+30  1.0000E+30  1.0000E+30
       1.0000E+30  1.0000E+30  1.0000E+30  1.0000E+30  1.0000E+30  1.0000E+30   8.129       5.495       3.770       3.280    
        2.657       1.976       1.423      0.9920      0.7188      0.5310      0.3481      8.1545E-02  0.1190      0.1552    
       0.1791      0.1912    
   5   1.0000E+30  1.0000E+30  1.0000E+30  1.0000E+30  1.0000E+30  1.0000E+30  1.0000E+30  1.0000E+30  1.0000E+30  1.0000E+30
       1.0000E+30  1.0000E+30  1.0000E+30  1.0000E+30  1.0000E+30  1.0000E+30  1.0000E+30  1.0000E+30  1.0000E+30  1.0000E+30
       1.0000E+30  1.0000E+30  1.0000E+30  1.0000E+30   20.14       14.68       9.232       6.303       4.561       3.265    
        2.586       1.876       1.272      0.8625      0.6349      0.4590      0.3222      0.2097      0.1803      0.1805    
       0.1912      0.1987    
   6   1.0000E+30  1.0000E+30  1.0000E+30  1.0000E+30  1.0000E+30  1.0000E+30  1.0000E+30  1.0000E+30  1.0000E+30  1.0000E+30
       1.0000E+30  1.0000E+30  1.0000E+30  1.0000E+30  1.0000E+30  1.0000E+30  1.0000E+30  1.0000E+30  1.0000E+30  1.0000E+30
       1.0000E+30  1.0000E+30  1.0000E+30   20.57       18.38       13.57       9.012       6.448       4.988       3.714    
        2.604       1.692       1.079      0.6677      0.4481      0.3202      0.2553      0.1934      0.1756      0.1816    
       0.1949      0.2036    
   7   1.0000E+30  1.0000E+30  1.0000E+30  1.0000E+30  1.0000E+30  1.0000E+30  1.0000E+30  1.0000E+30  1.0000E+30  1.0000E+30
       1.0000E+30  1.0000E+30  1.0000E+30  1.0000E+30  1.0000E+30  1.0000E+30  1.0000E+30  1.0000E+30  1.0000E+30  1.0000E+30
       1.0000E+30  1.0000E+30   24.78       20.87       18.05       13.24       8.882       6.657       5.207       3.969    
        2.580       1.504      0.8710      0.1791      0.1422      0.1225      0.1216      0.1067      0.1292      0.1646    
       0.1919      0.2062    
   8   1.0000E+30  1.0000E+30  1.0000E+30  1.0000E+30  1.0000E+30  1.0000E+30  1.0000E+30  1.0000E+30  1.0000E+30  1.0000E+30
       1.0000E+30  1.0000E+30  1.0000E+30  1.0000E+30  1.0000E+30  1.0000E+30  1.0000E+30  1.0000E+30  1.0000E+30  1.0000E+30
       1.0000E+30   25.13       23.48       21.07       17.84       13.29       8.932       6.973       5.497       4.129    
        2.596       1.387      0.6237      0.1246     -0.1347     -5.6795E-02 -5.3509E-02 -9.3130E-03  6.4740E-02  0.1408    
       0.1865      0.2080    
   9   1.0000E+30  1.0000E+30  1.0000E+30  1.0000E+30  1.0000E+30  1.0000E+30  1.0000E+30  1.0000E+30  1.0000E+30  1.0000E+30
       1.0000E+30  1.0000E+30  1.0000E+30  1.0000E+30  1.0000E+30  1.0000E+30  1.0000E+30  1.0000E+30  1.0000E+30  1.0000E+30
        26.56       23.35       22.03       19.60       17.23       13.97       9.938       7.117       5.738       4.301    
        2.550       1.087      0.4438      0.1107     -0.1485     -0.1319     -0.3839     -0.1294      3.7835E-03  0.1198    
       0.1823      0.2103    
  10   1.0000E+30  1.0000E+30  1.0000E+30  1.0000E+30  1.0000E+30  1.0000E+30  1.0000E+30  1.0000E+30  1.0000E+30  1.0000E+30
       1.0000E+30  1.0000E+30  1.0000E+30  1.0000E+30  1.0000E+30  1.0000E+30  1.0000E+30  1.0000E+30  1.0000E+30  1.0000E+30
       1.0000E+30   23.95       21.71       19.16       17.14       14.78       11.73       8.623       6.441       4.655    
        2.546      0.7109      0.1701      8.3079E-03 -0.1079     -0.1454     -0.1921     -0.1302     -1.1293E-02  0.1122    
       0.1830      0.2152    
  11   1.0000E+30  1.0000E+30  1.0000E+30  1.0000E+30  1.0000E+30  1.0000E+30  1.0000E+30  1.0000E+30  1.0000E+30  1.0000E+30
       1.0000E+30  1.0000E+30  1.0000E+30  1.0000E+30  1.0000E+30  1.0000E+30  1.0000E+30  1.0000E+30  1.0000E+30  1.0000E+30
       1.0000E+30  1.0000E+30   21.64       19.77       17.83       15.94       13.03       9.763       6.832       4.473    
        2.433       1.090      0.3472      5.4323E-02 -0.2401     -0.2236     -0.1845     -0.1344     -1.6577E-02  0.1115    
       0.1880      0.2235    
  12   1.0000E+30  1.0000E+30  1.0000E+30  1.0000E+30  1.0000E+30  1.0000E+30  1.0000E+30  1.0000E+30  1.0000E+30  1.0000E+30
       1.0000E+30  1.0000E+30  1.0000E+30  1.0000E+30  1.0000E+30  1.0000E+30  1.0000E+30  1.0000E+30  1.0000E+30  1.0000E+30
       1.0000E+30  1.0000E+30  1.0000E+30   19.54       18.71       17.65       14.16       10.18       7.067       4.917    
        2.878       1.289      0.5921      1.9541E-02 -0.6038     -0.3600     -0.2299     -0.1543     -2.5943E-02  0.1113    
       0.1962      0.2368    
  13   1.0000E+30  1.0000E+30  1.0000E+30  1.0000E+30  1.0000E+30  1.0000E+30  1.0000E+30  1.0000E+30  1.0000E+30  1.0000E+30
       1.0000E+30  1.0000E+30  1.0000E+30  1.0000E+30  1.0000E+30  1.0000E+30  1.0000E+30  1.0000E+30  1.0000E+30  1.0000E+30
       1.0000E+30  1.0000E+30  1.0000E+30  1.0000E+30  1.0000E+30  1.0000E+30   12.95       9.389       6.798       4.817    
        2.894       1.640      0.8081      0.1027     -0.3470     -0.3654     -0.2682     -0.1737     -4.5092E-02  0.1046    
       0.2075      0.2568    
  14   1.0000E+30  1.0000E+30  1.0000E+30  1.0000E+30  1.0000E+30  1.0000E+30  1.0000E+30  1.0000E+30  1.0000E+30  1.0000E+30
       1.0000E+30  1.0000E+30  1.0000E+30  1.0000E+30  1.0000E+30  1.0000E+30  1.0000E+30  1.0000E+30  1.0000E+30  1.0000E+30
       1.0000E+30  1.0000E+30  1.0000E+30  1.0000E+30  1.0000E+30  1.0000E+30  1.0000E+30   8.003       6.844       5.084    
        3.124       1.850      0.8349     -9.5334E-02 -0.4108     -0.4929     -0.3649     -0.2455     -0.1389      7.4772E-02
       0.2182      0.2814    
  15   1.0000E+30  1.0000E+30  1.0000E+30  1.0000E+30  1.0000E+30  1.0000E+30  1.0000E+30  1.0000E+30  1.0000E+30  1.0000E+30
       1.0000E+30  1.0000E+30  1.0000E+30  1.0000E+30  1.0000E+30  1.0000E+30  1.0000E+30  1.0000E+30  1.0000E+30  1.0000E+30
       1.0000E+30  1.0000E+30  1.0000E+30  1.0000E+30  1.0000E+30  1.0000E+30  1.0000E+30  1.0000E+30   6.920       5.506    
        3.374       1.984      0.5934      -1.223     -0.8941      -1.003     -0.5038     -0.3247     -0.4035      3.0729E-02
       0.2303      0.3121    
  16   1.0000E+30  1.0000E+30  1.0000E+30  1.0000E+30  1.0000E+30  1.0000E+30  1.0000E+30  1.0000E+30  1.0000E+30  1.0000E+30
       1.0000E+30  1.0000E+30  1.0000E+30  1.0000E+30  1.0000E+30  1.0000E+30  1.0000E+30  1.0000E+30  1.0000E+30  1.0000E+30
       1.0000E+30  1.0000E+30  1.0000E+30  1.0000E+30  1.0000E+30  1.0000E+30  1.0000E+30  1.0000E+30  1.0000E+30  1.0000E+30
        3.647       2.234      0.7392     -0.5217      -1.185     -0.8022     -0.4427     -0.2551     -0.1146      0.1207    
       0.2836      0.3609    
  17   1.0000E+30  1.0000E+30  1.0000E+30  1.0000E+30  1.0000E+30  1.0000E+30  1.0000E+30  1.0000E+30  1.0000E+30  1.0000E+30
       1.0000E+30  1.0000E+30  1.0000E+30  1.0000E+30  1.0000E+30  1.0000E+30  1.0000E+30  1.0000E+30  1.0000E+30  1.0000E+30
       1.0000E+30  1.0000E+30  1.0000E+30  1.0000E+30  1.0000E+30  1.0000E+30  1.0000E+30  1.0000E+30  1.0000E+30  1.0000E+30
       1.0000E+30  1.0000E+30  1.0000E+30  1.0000E+30  1.0000E+30 -0.5117     -0.3415     -0.1562      7.9748E-03  0.1945    
       0.3433      0.4135    
  18   1.0000E+30  1.0000E+30  1.0000E+30  1.0000E+30  1.0000E+30  1.0000E+30  1.0000E+30  1.0000E+30  1.0000E+30  1.0000E+30
       1.0000E+30  1.0000E+30  1.0000E+30  1.0000E+30  1.0000E+30  1.0000E+30  1.0000E+30  1.0000E+30  1.0000E+30  1.0000E+30
       1.0000E+30  1.0000E+30  1.0000E+30  1.0000E+30  1.0000E+30  1.0000E+30  1.0000E+30  1.0000E+30  1.0000E+30  1.0000E+30
       1.0000E+30  1.0000E+30  1.0000E+30  1.0000E+30  1.0000E+30  1.0000E+30  1.0000E+30 -3.4346E-02  8.0859E-02  0.2381    
       0.3750      0.4486    
  19   1.0000E+30  1.0000E+30  1.0000E+30  1.0000E+30  1.0000E+30  1.0000E+30  1.0000E+30  1.0000E+30  1.0000E+30  1.0000E+30
       1.0000E+30  1.0000E+30  1.0000E+30  1.0000E+30  1.0000E+30  1.0000E+30  1.0000E+30  1.0000E+30  1.0000E+30  1.0000E+30
       1.0000E+30  1.0000E+30  1.0000E+30  1.0000E+30  1.0000E+30  1.0000E+30  1.0000E+30  1.0000E+30  1.0000E+30  1.0000E+30
       1.0000E+30  1.0000E+30  1.0000E+30  1.0000E+30  1.0000E+30  1.0000E+30  1.0000E+30  1.0000E+30  1.0000E+30  1.0000E+30
       1.0000E+30  1.0000E+30
  20   1.0000E+30  1.0000E+30  1.0000E+30  1.0000E+30  1.0000E+30  1.0000E+30  1.0000E+30  1.0000E+30  1.0000E+30  1.0000E+30
       1.0000E+30  1.0000E+30  1.0000E+30  1.0000E+30  1.0000E+30  1.0000E+30  1.0000E+30  1.0000E+30  1.0000E+30  1.0000E+30
       1.0000E+30  1.0000E+30  1.0000E+30  1.0000E+30  1.0000E+30  1.0000E+30  1.0000E+30  1.0000E+30  1.0000E+30  1.0000E+30
       1.0000E+30  1.0000E+30  1.0000E+30  1.0000E+30  1.0000E+30  1.0000E+30  1.0000E+30  1.0000E+30  1.0000E+30  1.0000E+30
       1.0000E+30  1.0000E+30
  21   1.0000E+30  1.0000E+30  1.0000E+30  1.0000E+30  1.0000E+30  1.0000E+30  1.0000E+30  1.0000E+30  1.0000E+30  1.0000E+30
       1.0000E+30  1.0000E+30  1.0000E+30  1.0000E+30  1.0000E+30  1.0000E+30  1.0000E+30  1.0000E+30  1.0000E+30  1.0000E+30
       1.0000E+30  1.0000E+30  1.0000E+30  1.0000E+30  1.0000E+30  1.0000E+30  1.0000E+30  1.0000E+30  1.0000E+30  1.0000E+30
       1.0000E+30  1.0000E+30  1.0000E+30  1.0000E+30  1.0000E+30  1.0000E+30  1.0000E+30  1.0000E+30  1.0000E+30  1.0000E+30
       1.0000E+30  1.0000E+30
  22   1.0000E+30  1.0000E+30  1.0000E+30  1.0000E+30  1.0000E+30  1.0000E+30  1.0000E+30  1.0000E+30  1.0000E+30  1.0000E+30
       1.0000E+30  1.0000E+30  1.0000E+30  1.0000E+30  1.0000E+30  1.0000E+30  1.0000E+30  1.0000E+30  1.0000E+30  1.0000E+30
       1.0000E+30  1.0000E+30  1.0000E+30  1.0000E+30  1.0000E+30  1.0000E+30  1.0000E+30  1.0000E+30  1.0000E+30  1.0000E+30
       1.0000E+30  1.0000E+30  1.0000E+30  1.0000E+30  1.0000E+30  1.0000E+30  1.0000E+30  1.0000E+30  1.0000E+30  1.0000E+30
       1.0000E+30  1.0000E+30
  23   1.0000E+30  1.0000E+30  1.0000E+30  1.0000E+30  1.0000E+30  1.0000E+30  1.0000E+30  1.0000E+30  1.0000E+30  1.0000E+30
       1.0000E+30  1.0000E+30  1.0000E+30  1.0000E+30  1.0000E+30  1.0000E+30  1.0000E+30  1.0000E+30  1.0000E+30  1.0000E+30
       1.0000E+30  1.0000E+30  1.0000E+30  1.0000E+30  1.0000E+30  1.0000E+30  1.0000E+30  1.0000E+30  1.0000E+30  1.0000E+30
       1.0000E+30  1.0000E+30  1.0000E+30  1.0000E+30  1.0000E+30  1.0000E+30  1.0000E+30  1.0000E+30  1.0000E+30  1.0000E+30
       1.0000E+30  1.0000E+30
  24   1.0000E+30  1.0000E+30  1.0000E+30  1.0000E+30  1.0000E+30  1.0000E+30  1.0000E+30  1.0000E+30  1.0000E+30  1.0000E+30
       1.0000E+30  1.0000E+30  1.0000E+30  1.0000E+30  1.0000E+30  1.0000E+30  1.0000E+30  1.0000E+30  1.0000E+30  1.0000E+30
       1.0000E+30  1.0000E+30  1.0000E+30  1.0000E+30  1.0000E+30  1.0000E+30  1.0000E+30  1.0000E+30  1.0000E+30  1.0000E+30
       1.0000E+30  1.0000E+30  1.0000E+30  1.0000E+30  1.0000E+30  1.0000E+30  1.0000E+30  1.0000E+30  1.0000E+30  1.0000E+30
       1.0000E+30  1.0000E+30
  25   1.0000E+30  1.0000E+30  1.0000E+30  1.0000E+30  1.0000E+30  1.0000E+30  1.0000E+30  1.0000E+30  1.0000E+30  1.0000E+30
       1.0000E+30  1.0000E+30  1.0000E+30  1.0000E+30  1.0000E+30  1.0000E+30  1.0000E+30  1.0000E+30  1.0000E+30  1.0000E+30
       1.0000E+30  1.0000E+30  1.0000E+30  1.0000E+30  1.0000E+30  1.0000E+30  1.0000E+30  1.0000E+30  1.0000E+30  1.0000E+30
       1.0000E+30  1.0000E+30  1.0000E+30  1.0000E+30  1.0000E+30  1.0000E+30  1.0000E+30  1.0000E+30  1.0000E+30  1.0000E+30
       1.0000E+30  1.0000E+30
  26   1.0000E+30  1.0000E+30  1.0000E+30  1.0000E+30  1.0000E+30  1.0000E+30  1.0000E+30  1.0000E+30  1.0000E+30  1.0000E+30
       1.0000E+30  1.0000E+30  1.0000E+30  1.0000E+30  1.0000E+30  1.0000E+30  1.0000E+30  1.0000E+30  1.0000E+30  1.0000E+30
       1.0000E+30  1.0000E+30  1.0000E+30  1.0000E+30  1.0000E+30  1.0000E+30  1.0000E+30  1.0000E+30  1.0000E+30  1.0000E+30
       1.0000E+30  1.0000E+30  1.0000E+30  1.0000E+30  1.0000E+30  1.0000E+30  1.0000E+30  1.0000E+30  1.0000E+30  1.0000E+30
       1.0000E+30  1.0000E+30
  27   1.0000E+30  1.0000E+30  1.0000E+30  1.0000E+30  1.0000E+30  1.0000E+30  1.0000E+30  1.0000E+30  1.0000E+30  1.0000E+30
       1.0000E+30  1.0000E+30  1.0000E+30  1.0000E+30  1.0000E+30  1.0000E+30  1.0000E+30  1.0000E+30  1.0000E+30  1.0000E+30
       1.0000E+30  1.0000E+30  1.0000E+30  1.0000E+30  1.0000E+30  1.0000E+30  1.0000E+30  1.0000E+30  1.0000E+30  1.0000E+30
       1.0000E+30  1.0000E+30  1.0000E+30  1.0000E+30  1.0000E+30  1.0000E+30  1.0000E+30  1.0000E+30  1.0000E+30  1.0000E+30
       1.0000E+30  1.0000E+30
  28   1.0000E+30  1.0000E+30  1.0000E+30  1.0000E+30  1.0000E+30  1.0000E+30  1.0000E+30  1.0000E+30  1.0000E+30  1.0000E+30
       1.0000E+30  1.0000E+30  1.0000E+30  1.0000E+30  1.0000E+30  1.0000E+30  1.0000E+30  1.0000E+30  1.0000E+30  1.0000E+30
       1.0000E+30  1.0000E+30  1.0000E+30  1.0000E+30  1.0000E+30  1.0000E+30  1.0000E+30  1.0000E+30  1.0000E+30  1.0000E+30
       1.0000E+30  1.0000E+30  1.0000E+30  1.0000E+30  1.0000E+30  1.0000E+30  1.0000E+30  1.0000E+30  1.0000E+30  1.0000E+30
       1.0000E+30  1.0000E+30
  29   1.0000E+30  1.0000E+30  1.0000E+30  1.0000E+30  1.0000E+30  1.0000E+30  1.0000E+30  1.0000E+30  1.0000E+30  1.0000E+30
       1.0000E+30  1.0000E+30  1.0000E+30  1.0000E+30  1.0000E+30  1.0000E+30  1.0000E+30  1.0000E+30  1.0000E+30  1.0000E+30
       1.0000E+30  1.0000E+30  1.0000E+30  1.0000E+30  1.0000E+30  1.0000E+30  1.0000E+30  1.0000E+30  1.0000E+30  1.0000E+30
       1.0000E+30  1.0000E+30  1.0000E+30  1.0000E+30  1.0000E+30  1.0000E+30  1.0000E+30  1.0000E+30  1.0000E+30  1.0000E+30
       1.0000E+30  1.0000E+30
  30   1.0000E+30  1.0000E+30  1.0000E+30  1.0000E+30  1.0000E+30  1.0000E+30  1.0000E+30  1.0000E+30  1.0000E+30  1.0000E+30
       1.0000E+30  1.0000E+30  1.0000E+30  1.0000E+30  1.0000E+30  1.0000E+30  1.0000E+30  1.0000E+30  1.0000E+30  1.0000E+30
       1.0000E+30  1.0000E+30  1.0000E+30  1.0000E+30  1.0000E+30  1.0000E+30  1.0000E+30  1.0000E+30  1.0000E+30  1.0000E+30
       1.0000E+30  1.0000E+30  1.0000E+30  1.0000E+30  1.0000E+30  1.0000E+30  1.0000E+30  1.0000E+30  1.0000E+30  1.0000E+30
       1.0000E+30  1.0000E+30
  31   1.0000E+30  1.0000E+30  1.0000E+30  1.0000E+30  1.0000E+30  1.0000E+30  1.0000E+30  1.0000E+30  1.0000E+30  1.0000E+30
       1.0000E+30  1.0000E+30  1.0000E+30  1.0000E+30  1.0000E+30  1.0000E+30  1.0000E+30  1.0000E+30  1.0000E+30  1.0000E+30
       1.0000E+30  1.0000E+30  1.0000E+30  1.0000E+30  1.0000E+30  1.0000E+30  1.0000E+30  1.0000E+30  1.0000E+30  1.0000E+30
       1.0000E+30  1.0000E+30  1.0000E+30  1.0000E+30  1.0000E+30  1.0000E+30  1.0000E+30  1.0000E+30  1.0000E+30  1.0000E+30
       1.0000E+30  1.0000E+30
  32   1.0000E+30  1.0000E+30  1.0000E+30  1.0000E+30  1.0000E+30  1.0000E+30  1.0000E+30  1.0000E+30  1.0000E+30  1.0000E+30
       1.0000E+30  1.0000E+30  1.0000E+30  1.0000E+30  1.0000E+30  1.0000E+30  1.0000E+30  1.0000E+30  1.0000E+30  1.0000E+30
       1.0000E+30  1.0000E+30  1.0000E+30  1.0000E+30  1.0000E+30  1.0000E+30  1.0000E+30  1.0000E+30  1.0000E+30  1.0000E+30
       1.0000E+30  1.0000E+30  1.0000E+30  1.0000E+30  1.0000E+30  1.0000E+30  1.0000E+30  1.0000E+30  1.0000E+30  1.0000E+30
       1.0000E+30  1.0000E+30
  33   1.0000E+30  1.0000E+30  1.0000E+30  1.0000E+30  1.0000E+30  1.0000E+30  1.0000E+30  1.0000E+30  1.0000E+30  1.0000E+30
       1.0000E+30  1.0000E+30  1.0000E+30  1.0000E+30  1.0000E+30  1.0000E+30  1.0000E+30  1.0000E+30  1.0000E+30  1.0000E+30
       1.0000E+30  1.0000E+30  1.0000E+30  1.0000E+30  1.0000E+30  1.0000E+30  1.0000E+30  1.0000E+30  1.0000E+30  1.0000E+30
       1.0000E+30  1.0000E+30  1.0000E+30  1.0000E+30  1.0000E+30  1.0000E+30  1.0000E+30  1.0000E+30  1.0000E+30  1.0000E+30
       1.0000E+30  1.0000E+30
  34   1.0000E+30  1.0000E+30  1.0000E+30  1.0000E+30  1.0000E+30  1.0000E+30  1.0000E+30  1.0000E+30  1.0000E+30  1.0000E+30
       1.0000E+30  1.0000E+30  1.0000E+30  1.0000E+30  1.0000E+30  1.0000E+30  1.0000E+30  1.0000E+30  1.0000E+30  1.0000E+30
       1.0000E+30  1.0000E+30  1.0000E+30  1.0000E+30  1.0000E+30  1.0000E+30  1.0000E+30  1.0000E+30  1.0000E+30  1.0000E+30
       1.0000E+30  1.0000E+30  1.0000E+30  1.0000E+30  1.0000E+30  1.0000E+30  1.0000E+30  1.0000E+30  1.0000E+30  1.0000E+30
       1.0000E+30  1.0000E+30
  35   1.0000E+30  1.0000E+30  1.0000E+30  1.0000E+30  1.0000E+30  1.0000E+30  1.0000E+30  1.0000E+30  1.0000E+30  1.0000E+30
       1.0000E+30  1.0000E+30  1.0000E+30  1.0000E+30  1.0000E+30  1.0000E+30  1.0000E+30  1.0000E+30  1.0000E+30  1.0000E+30
       1.0000E+30  1.0000E+30  1.0000E+30  1.0000E+30  1.0000E+30  1.0000E+30  1.0000E+30  1.0000E+30  1.0000E+30  1.0000E+30
       1.0000E+30  1.0000E+30  1.0000E+30  1.0000E+30  1.0000E+30  1.0000E+30  1.0000E+30  1.0000E+30  1.0000E+30  1.0000E+30
       1.0000E+30  1.0000E+30
  36   1.0000E+30  1.0000E+30  1.0000E+30  1.0000E+30  1.0000E+30  1.0000E+30  1.0000E+30  1.0000E+30  1.0000E+30  1.0000E+30
       1.0000E+30  1.0000E+30  1.0000E+30  1.0000E+30  1.0000E+30  1.0000E+30  1.0000E+30  1.0000E+30  1.0000E+30  1.0000E+30
       1.0000E+30  1.0000E+30  1.0000E+30  1.0000E+30  1.0000E+30  1.0000E+30  1.0000E+30  1.0000E+30  1.0000E+30  1.0000E+30
       1.0000E+30  1.0000E+30  1.0000E+30  1.0000E+30  1.0000E+30  1.0000E+30  1.0000E+30  1.0000E+30  1.0000E+30  1.0000E+30
       1.0000E+30  1.0000E+30
  37   1.0000E+30  1.0000E+30  1.0000E+30  1.0000E+30  1.0000E+30  1.0000E+30  1.0000E+30  1.0000E+30  1.0000E+30  1.0000E+30
       1.0000E+30  1.0000E+30  1.0000E+30  1.0000E+30  1.0000E+30  1.0000E+30  1.0000E+30  1.0000E+30  1.0000E+30  1.0000E+30
       1.0000E+30  1.0000E+30  1.0000E+30  1.0000E+30  1.0000E+30  1.0000E+30  1.0000E+30  1.0000E+30  1.0000E+30  1.0000E+30
       1.0000E+30  1.0000E+30  1.0000E+30  1.0000E+30  1.0000E+30  1.0000E+30  1.0000E+30  1.0000E+30  1.0000E+30  1.0000E+30
       1.0000E+30  1.0000E+30
  38   1.0000E+30  1.0000E+30  1.0000E+30  1.0000E+30  1.0000E+30  1.0000E+30  1.0000E+30  1.0000E+30  1.0000E+30  1.0000E+30
       1.0000E+30  1.0000E+30  1.0000E+30  1.0000E+30  1.0000E+30  1.0000E+30  1.0000E+30  1.0000E+30  1.0000E+30  1.0000E+30
       1.0000E+30  1.0000E+30  1.0000E+30  1.0000E+30  1.0000E+30  1.0000E+30  1.0000E+30  1.0000E+30  1.0000E+30  1.0000E+30
       1.0000E+30  1.0000E+30  1.0000E+30  1.0000E+30  1.0000E+30  1.0000E+30  1.0000E+30  1.0000E+30  1.0000E+30  1.0000E+30
       1.0000E+30  1.0000E+30
1
  HEAD IN LAYER   4 AT END OF TIME STEP   1 IN STRESS PERIOD    1
  ---------------------------------------------------------------------------

            1           2           3           4           5           6           7           8           9          10
           11          12          13          14          15          16          17          18          19          20
           21          22          23          24          25          26          27          28          29          30
           31          32          33          34          35          36          37          38          39          40
           41          42
 ........................................................................................................................
   1   1.0000E+30  1.0000E+30  1.0000E+30  1.0000E+30  1.0000E+30  1.0000E+30  1.0000E+30  1.0000E+30  1.0000E+30  1.0000E+30
       1.0000E+30  1.0000E+30  1.0000E+30  1.0000E+30  1.0000E+30  1.0000E+30  1.0000E+30  1.0000E+30  1.0000E+30  1.0000E+30
       1.0000E+30  1.0000E+30  1.0000E+30  1.0000E+30  1.0000E+30  1.0000E+30  1.0000E+30  1.0000E+30   3.961       3.264    
        2.639       2.261       1.898       1.579       1.300       1.075      0.8610      0.5878      0.4825      0.4431    
       0.4191      0.4071    
   2   1.0000E+30  1.0000E+30  1.0000E+30  1.0000E+30  1.0000E+30  1.0000E+30  1.0000E+30  1.0000E+30  1.0000E+30  1.0000E+30
       1.0000E+30  1.0000E+30  1.0000E+30  1.0000E+30  1.0000E+30  1.0000E+30  1.0000E+30  1.0000E+30  1.0000E+30  1.0000E+30
       1.0000E+30  1.0000E+30  1.0000E+30  1.0000E+30  1.0000E+30  1.0000E+30  1.0000E+30   4.972       3.853       3.258    
        2.802       2.274       1.856       1.526       1.271       1.064      0.8256      0.3630      0.4204      0.4297    
       0.4156      0.4057    
   3   1.0000E+30  1.0000E+30  1.0000E+30  1.0000E+30  1.0000E+30  1.0000E+30  1.0000E+30  1.0000E+30  1.0000E+30  1.0000E+30
       1.0000E+30  1.0000E+30  1.0000E+30  1.0000E+30  1.0000E+30  1.0000E+30  1.0000E+30  1.0000E+30  1.0000E+30  1.0000E+30
       1.0000E+30  1.0000E+30  1.0000E+30  1.0000E+30  1.0000E+30  1.0000E+30  1.0000E+30   4.935       3.689       3.283    
        2.863       2.362       1.865       1.495       1.247       1.073      0.8787      0.5876      0.4858      0.4437    
       0.4177      0.4049    
   4   1.0000E+30  1.0000E+30  1.0000E+30  1.0000E+30  1.0000E+30  1.0000E+30  1.0000E+30  1.0000E+30  1.0000E+30  1.0000E+30
       1.0000E+30  1.0000E+30  1.0000E+30  1.0000E+30  1.0000E+30  1.0000E+30  1.0000E+30  1.0000E+30  1.0000E+30  1.0000E+30
       1.0000E+30  1.0000E+30  1.0000E+30  1.0000E+30  1.0000E+30  1.0000E+30   8.876       5.085       3.821       3.373    
        2.864       2.380       1.911       1.487       1.213       1.037      0.8743      0.6008      0.4994      0.4480    
       0.4173      0.4028    
   5   1.0000E+30  1.0000E+30  1.0000E+30  1.0000E+30  1.0000E+30  1.0000E+30  1.0000E+30  1.0000E+30  1.0000E+30  1.0000E+30
       1.0000E+30  1.0000E+30  1.0000E+30  1.0000E+30  1.0000E+30  1.0000E+30  1.0000E+30  1.0000E+30  1.0000E+30  1.0000E+30
       1.0000E+30  1.0000E+30   34.99       29.80       22.02       14.31       7.913       5.505       4.323       3.470    
        2.941       2.398       1.840       1.385       1.143      0.9752      0.8254      0.5504      0.4681      0.4367    
       0.4153      0.4048    
   6   1.0000E+30  1.0000E+30  1.0000E+30  1.0000E+30  1.0000E+30  1.0000E+30  1.0000E+30  1.0000E+30  1.0000E+30  1.0000E+30
       1.0000E+30  1.0000E+30  1.0000E+30  1.0000E+30  1.0000E+30  1.0000E+30  1.0000E+30  1.0000E+30  1.0000E+30  1.0000E+30
       1.0000E+30  1.0000E+30   31.53       23.29       18.26       11.38       6.171       5.441       4.621       3.800    
        3.035       2.326       1.716       1.202       1.013      0.8905      0.7496      0.1364      0.3745      0.4280    
       0.4328      0.4290    
   7   1.0000E+30  1.0000E+30  1.0000E+30  1.0000E+30  1.0000E+30  1.0000E+30  1.0000E+30  1.0000E+30  1.0000E+30  1.0000E+30
       1.0000E+30  1.0000E+30  1.0000E+30  1.0000E+30  1.0000E+30  1.0000E+30  1.0000E+30  1.0000E+30  1.0000E+30  1.0000E+30
       1.0000E+30  1.0000E+30   26.99       21.81       16.69       10.88       7.057       5.798       4.905       4.052    
        3.095       2.251       1.541      0.6650      0.8304      0.8252      0.7561      0.5499      0.5082      0.5001    
       0.4907      0.4845    
   8   1.0000E+30  1.0000E+30  1.0000E+30  1.0000E+30  1.0000E+30  1.0000E+30  1.0000E+30  1.0000E+30  1.0000E+30  1.0000E+30
       1.0000E+30  1.0000E+30  1.0000E+30  1.0000E+30  1.0000E+30  1.0000E+30  1.0000E+30  1.0000E+30  1.0000E+30  1.0000E+30
        29.98       27.25       24.45       20.36       15.69       11.09       7.781       6.313       5.280       4.298    
        3.208       2.238       1.369      0.9291      0.8383      0.8500      0.7934      0.6960      0.6223      0.5872    
       0.5630      0.5510    
   9   1.0000E+30  1.0000E+30  1.0000E+30  1.0000E+30  1.0000E+30  1.0000E+30  1.0000E+30  1.0000E+30  1.0000E+30  1.0000E+30
       1.0000E+30  1.0000E+30  1.0000E+30  1.0000E+30  1.0000E+30  1.0000E+30  1.0000E+30  1.0000E+30  1.0000E+30  1.0000E+30
        27.51       24.86       22.64       18.15       14.93       11.64       8.697       6.705       5.654       4.576    
        3.342       2.239       1.657       1.292       1.033      0.9414      0.7239      0.7419      0.6810      0.6464    
       0.6174      0.6007    
  10   1.0000E+30  1.0000E+30  1.0000E+30  1.0000E+30  1.0000E+30  1.0000E+30  1.0000E+30  1.0000E+30  1.0000E+30  1.0000E+30
       1.0000E+30  1.0000E+30  1.0000E+30  1.0000E+30  1.0000E+30  1.0000E+30  1.0000E+30  1.0000E+30  1.0000E+30  1.0000E+30
        28.64       26.06       23.00       18.74       14.79       12.28       9.935       7.752       6.247       4.952    
        3.509       2.281       1.760       1.456       1.201       1.035      0.9102      0.8102      0.7226      0.6803    
       0.6489      0.6322    
  11   1.0000E+30  1.0000E+30  1.0000E+30  1.0000E+30  1.0000E+30  1.0000E+30  1.0000E+30  1.0000E+30  1.0000E+30  1.0000E+30
       1.0000E+30  1.0000E+30  1.0000E+30  1.0000E+30  1.0000E+30  1.0000E+30  1.0000E+30  1.0000E+30  1.0000E+30  1.0000E+30
       1.0000E+30  1.0000E+30   24.07       19.76       13.96       13.20       10.95       8.614       6.676       5.038    
        3.536       2.624       2.003       1.604       1.220       1.052      0.9556      0.8394      0.7414      0.6962    
       0.6651      0.6490    
  12   1.0000E+30  1.0000E+30  1.0000E+30  1.0000E+30  1.0000E+30  1.0000E+30  1.0000E+30  1.0000E+30  1.0000E+30  1.0000E+30
       1.0000E+30  1.0000E+30  1.0000E+30  1.0000E+30  1.0000E+30  1.0000E+30  1.0000E+30  1.0000E+30  1.0000E+30  1.0000E+30
       1.0000E+30  1.0000E+30  1.0000E+30   21.12       17.71       15.05       12.01       9.103       7.012       5.459    
        4.005       2.867       2.228       1.652       1.060      0.9858      0.9286      0.8207      0.7291      0.6922    
       0.6676      0.6554    
  13   1.0000E+30  1.0000E+30  1.0000E+30  1.0000E+30  1.0000E+30  1.0000E+30  1.0000E+30  1.0000E+30  1.0000E+30  1.0000E+30
       1.0000E+30  1.0000E+30  1.0000E+30  1.0000E+30  1.0000E+30  1.0000E+30  1.0000E+30  1.0000E+30  1.0000E+30  1.0000E+30
       1.0000E+30  1.0000E+30  1.0000E+30  1.0000E+30  1.0000E+30  1.0000E+30   11.75       8.935       7.037       5.559    
        4.152       3.137       2.387       1.704       1.142      0.9210      0.8560      0.7677      0.6872      0.6654    
       0.6577      0.6545    
  14   1.0000E+30  1.0000E+30  1.0000E+30  1.0000E+30  1.0000E+30  1.0000E+30  1.0000E+30  1.0000E+30  1.0000E+30  1.0000E+30
       1.0000E+30  1.0000E+30  1.0000E+30  1.0000E+30  1.0000E+30  1.0000E+30  1.0000E+30  1.0000E+30  1.0000E+30  1.0000E+30
       1.0000E+30  1.0000E+30  1.0000E+30  1.0000E+30  1.0000E+30  1.0000E+30   13.56       8.404       7.116       5.797    
        4.346       3.275       2.390       1.585       1.087      0.7124      0.7139      0.6615      0.5902      0.6183    
       0.6433      0.6529    
  15   1.0000E+30  1.0000E+30  1.0000E+30  1.0000E+30  1.0000E+30  1.0000E+30  1.0000E+30  1.0000E+30  1.0000E+30  1.0000E+30
[...]
        3.466       2.960       2.354       1.736       1.577       1.461       1.245      7.5004E-02  0.5732      0.6742    
       0.6705      0.6543    
   7   1.0000E+30  1.0000E+30  1.0000E+30  1.0000E+30  1.0000E+30  1.0000E+30  1.0000E+30  1.0000E+30  1.0000E+30  1.0000E+30
       1.0000E+30  1.0000E+30  1.0000E+30  1.0000E+30  1.0000E+30  1.0000E+30  1.0000E+30  1.0000E+30  1.0000E+30  1.0000E+30
        37.94       35.70       29.20       22.75       15.33       8.529       5.231       4.938       4.603       4.134    
        3.611       2.997       2.212       1.147       1.519       1.528       1.391      0.9933      0.8872      0.8355    
       0.7895      0.7627    
   8   1.0000E+30  1.0000E+30  1.0000E+30  1.0000E+30  1.0000E+30  1.0000E+30  1.0000E+30  1.0000E+30  1.0000E+30  1.0000E+30
       1.0000E+30  1.0000E+30  1.0000E+30  1.0000E+30  1.0000E+30  1.0000E+30  1.0000E+30  1.0000E+30  1.0000E+30  1.0000E+30
        31.06       29.37       25.43       19.65       13.54       8.895       6.630       5.653       5.063       4.466    
        3.820       3.089       2.114       1.733       1.811       1.757       1.641       1.402       1.180       1.034    
       0.9394      0.8941    
   9   1.0000E+30  1.0000E+30  1.0000E+30  1.0000E+30  1.0000E+30  1.0000E+30  1.0000E+30  1.0000E+30  1.0000E+30  1.0000E+30
       1.0000E+30  1.0000E+30  1.0000E+30  1.0000E+30  1.0000E+30  1.0000E+30  1.0000E+30  1.0000E+30  1.0000E+30   34.00    
        28.48       26.37       23.24       16.69       12.63       9.311       7.456       6.292       5.569       4.851    
        4.135       3.391       2.871       2.473       2.214       2.015       1.830       1.613       1.358       1.173    
        1.053      0.9912    
  10   1.0000E+30  1.0000E+30  1.0000E+30  1.0000E+30  1.0000E+30  1.0000E+30  1.0000E+30  1.0000E+30  1.0000E+30  1.0000E+30
       1.0000E+30  1.0000E+30  1.0000E+30  1.0000E+30  1.0000E+30  1.0000E+30  1.0000E+30  1.0000E+30  1.0000E+30  1.0000E+30
        29.69       28.18       24.28       18.31       12.43       9.780       8.140       6.881       6.053       5.249    
        4.471       3.850       3.351       2.904       2.509       2.215       2.013       1.751       1.456       1.249    
        1.115       1.049    
  11   1.0000E+30  1.0000E+30  1.0000E+30  1.0000E+30  1.0000E+30  1.0000E+30  1.0000E+30  1.0000E+30  1.0000E+30  1.0000E+30
       1.0000E+30  1.0000E+30  1.0000E+30  1.0000E+30  1.0000E+30  1.0000E+30  1.0000E+30  1.0000E+30  1.0000E+30   45.00    
        38.08       33.24       26.50       19.74       10.09       10.47       8.870       7.465       6.520       5.603    
        4.639       4.157       3.659       3.154       2.680       2.329       2.096       1.813       1.499       1.281    
        1.142       1.074    
  12   1.0000E+30  1.0000E+30  1.0000E+30  1.0000E+30  1.0000E+30  1.0000E+30  1.0000E+30  1.0000E+30  1.0000E+30  1.0000E+30
       1.0000E+30  1.0000E+30  1.0000E+30  1.0000E+30  1.0000E+30  1.0000E+30  1.0000E+30  1.0000E+30   50.00       43.76    
        39.52       35.19       28.51       22.70       16.71       12.44       9.856       8.030       6.956       6.001    
        5.132       4.446       3.863       3.284       2.724       2.332       2.087       1.796       1.484       1.273    
        1.139       1.074    
  13   1.0000E+30  1.0000E+30  1.0000E+30  1.0000E+30  1.0000E+30  1.0000E+30  1.0000E+30  1.0000E+30  1.0000E+30  1.0000E+30
       1.0000E+30  1.0000E+30  1.0000E+30  1.0000E+30  1.0000E+30  1.0000E+30  1.0000E+30   52.75       48.23       43.12    
        39.51       36.42       32.38       28.04       21.01       14.11       10.56       8.480       7.276       6.301    
        5.411       4.633       3.967       3.306       2.632       2.207       1.980       1.709       1.420       1.226    
        1.108       1.052    
  14   1.0000E+30  1.0000E+30  1.0000E+30  1.0000E+30  1.0000E+30  1.0000E+30  1.0000E+30  1.0000E+30  1.0000E+30  1.0000E+30
       1.0000E+30  1.0000E+30  1.0000E+30  1.0000E+30  1.0000E+30  1.0000E+30  1.0000E+30   51.73       46.23       43.73    
        40.40       37.05       33.26       29.33       22.43       14.72       10.62       8.803       7.388       6.509    
        5.568       4.700       3.945       3.266       2.586       1.917       1.793       1.569       1.319       1.162    
        1.069       1.025    
  15   1.0000E+30  1.0000E+30  1.0000E+30  1.0000E+30  1.0000E+30  1.0000E+30  1.0000E+30  1.0000E+30  1.0000E+30  1.0000E+30
       1.0000E+30  1.0000E+30  1.0000E+30  1.0000E+30   90.00       85.00       68.55       55.61       47.41       44.43    
        40.96       37.32       33.42       29.74       23.07       14.85       11.63       9.387       7.962       6.770    
        5.656       4.643       3.864       3.143       2.459       1.786       1.612       1.409       1.219       1.106    
        1.031      0.9955    
  16   1.0000E+30  1.0000E+30  1.0000E+30  1.0000E+30  1.0000E+30  1.0000E+30  1.0000E+30  1.0000E+30  1.0000E+30  1.0000E+30
       1.0000E+30   87.07       84.86       82.92       78.73       69.19       63.42       56.52       50.26       45.62    
        40.68       36.79       32.98       29.85       24.39       16.28       13.45       10.94       9.016       7.333    
        5.619       4.379       3.736       3.012       2.250       1.681       1.377       1.244       1.135       1.056    
       0.9994      0.9715    
  17   1.0000E+30  1.0000E+30  1.0000E+30  1.0000E+30  1.0000E+30  1.0000E+30  1.0000E+30  1.0000E+30   90.73       88.62    
        85.50       83.60       80.98       79.02       75.35       69.75       63.43       56.60       51.64       46.58    
        39.77       35.85       32.68       30.26       25.84       19.76       15.64       12.82       10.36       8.106    
        6.014       4.366       3.711       2.934       1.839       1.286      0.9263       1.073       1.074       1.029    
       0.9846      0.9635    
  18   1.0000E+30  1.0000E+30  1.0000E+30  1.0000E+30  1.0000E+30  1.0000E+30  1.0000E+30   93.52       90.62       87.61    
        83.32       81.35       80.23       78.22       75.05       70.20       64.12       58.62       53.87       48.52    
        43.58       38.34       34.19       31.25       27.32       21.75       16.63       14.28       11.38       8.466    
        6.048       4.376       3.702       2.962       2.164       1.628       1.291       1.178       1.104       1.049    
        1.005      0.9829    
  19   1.0000E+30  1.0000E+30  1.0000E+30  1.0000E+30  1.0000E+30  1.0000E+30  1.0000E+30   93.79       91.55       87.46    
        79.86       80.58       79.86       77.81       74.57       70.48       65.38       61.38       57.13       52.59    
        47.67       40.73       35.55       32.53       28.90       24.27       19.28       15.35       11.48       7.980    
        6.151       4.785       3.805       2.953       2.232       1.831       1.318       1.227       1.161       1.104    
        1.060       1.038    
  20   1.0000E+30  1.0000E+30  1.0000E+30  1.0000E+30  1.0000E+30  1.0000E+30  1.0000E+30   95.65       93.86       90.39    
        85.62       82.95       80.44       77.65       74.29       71.13       67.50       64.34       60.71       56.76    
        53.09       45.61       37.82       34.30       30.86       26.89       22.00       16.62       11.13       4.464    
        5.552       4.836       3.700       2.546       2.062       1.699       1.203       1.267       1.225       1.162    
        1.112       1.087    
  21   1.0000E+30  1.0000E+30  1.0000E+30  1.0000E+30  1.0000E+30  1.0000E+30  1.0000E+30   100.8       99.31       96.13    
        91.32       86.64       81.23       78.22       75.37       72.36       69.13       66.24       63.05       59.48    
        56.25       49.44       42.79       38.54       34.27       29.22       24.30       18.25       12.85       7.734    
        6.131       5.024       3.452       1.258       1.740       1.715       1.526       1.429       1.324       1.228    
        1.160       1.127    
  22   1.0000E+30  1.0000E+30  1.0000E+30  1.0000E+30  1.0000E+30  1.0000E+30  1.0000E+30   109.6       108.7       105.9    
        99.64       92.87       86.38       80.31       76.81       74.07       71.02       68.16       65.15       61.66    
        58.20       47.36       45.09       41.37       36.60       31.34       25.82       19.43       13.94       7.546    
        6.595       5.418       3.558       1.558       1.920       1.925       1.772       1.615       1.433       1.285    
        1.193       1.151    
  23   1.0000E+30  1.0000E+30  1.0000E+30  1.0000E+30  1.0000E+30  1.0000E+30  1.0000E+30   115.0       115.0       113.3    
        109.0       100.1       91.68       83.80       78.89       76.07       73.06       70.29       67.34       64.08    
        60.71       56.09       49.85       43.77       38.05       32.26       26.07       19.15       13.36       7.239    
        6.227       5.111       3.730       2.621       2.417       2.265       2.058       1.843       1.527       1.321    
        1.203       1.152    
  24   1.0000E+30  1.0000E+30  1.0000E+30  1.0000E+30  1.0000E+30  1.0000E+30  1.0000E+30  1.0000E+30  1.0000E+30   113.6    
        113.6       108.0       97.72       86.64       83.24       80.32       77.18       74.45       71.38       67.65    
        62.15       59.15       52.27       43.26       37.46       31.76       25.34       18.20       13.61       8.585    
        6.293       5.092       3.685       3.177       2.860       2.617       2.399       2.206       1.607       1.147    
       0.9219      0.8503    
  25   1.0000E+30  1.0000E+30  1.0000E+30  1.0000E+30  1.0000E+30  1.0000E+30  1.0000E+30  1.0000E+30  1.0000E+30  1.0000E+30
        115.0       112.0       106.4       92.67       89.50       86.66       83.20       79.73       76.22       71.64    
        66.58       60.36       50.52       38.36       34.56       29.22       22.72       14.52       11.81       8.288    
        6.009       5.235       4.248       3.582       3.200       2.914       2.677       2.482       1.695       1.007    
       0.6574      0.5264    
  26   1.0000E+30  1.0000E+30  1.0000E+30  1.0000E+30  1.0000E+30  1.0000E+30  1.0000E+30  1.0000E+30  1.0000E+30  1.0000E+30
       1.0000E+30   115.0       110.0       105.2       97.49       92.86       88.98       84.74       80.68       74.68    
        69.35       61.69       51.47       40.31       32.70       26.89       20.81       15.02       11.17       8.006    
        5.986       5.327       4.472       3.888       3.484       3.143       2.888       2.690       1.769      0.9542    
       0.5276      0.3703    
  27   1.0000E+30  1.0000E+30  1.0000E+30  1.0000E+30  1.0000E+30  1.0000E+30  1.0000E+30  1.0000E+30  1.0000E+30  1.0000E+30
       1.0000E+30  1.0000E+30   112.0       111.3       106.8       99.82       94.41       90.20       86.00       81.17    
        72.82       62.64       50.75       39.11       30.36       24.68       18.73       14.17       10.50       7.766    
        6.359       5.406       4.418       4.007       3.677       3.303       3.036       2.858       1.854      0.9646    
       0.4988      0.3312    
  28   1.0000E+30  1.0000E+30  1.0000E+30  1.0000E+30  1.0000E+30  1.0000E+30  1.0000E+30  1.0000E+30  1.0000E+30  1.0000E+30
       1.0000E+30  1.0000E+30  1.0000E+30   111.2       110.9       107.5       102.3       96.20       92.86       90.81    
        81.61       67.77       53.30       39.08       29.13       24.12       18.43       13.17       9.643       6.407    
        5.973       5.212       3.982       4.048       3.428       3.436       3.253       3.060       2.002       1.028    
       0.5211      0.3259    
  29   1.0000E+30  1.0000E+30  1.0000E+30  1.0000E+30  1.0000E+30  1.0000E+30  1.0000E+30  1.0000E+30  1.0000E+30  1.0000E+30
       1.0000E+30  1.0000E+30  1.0000E+30  1.0000E+30   111.2       111.1       109.4       106.1       109.1       102.4    
        95.69       76.56       56.98       40.30       29.98       24.52       18.98       13.86       8.792       4.861    
        5.632       5.231       4.476       4.211       3.907       3.721       3.493       3.275       2.106       1.083    
       0.5413      0.3285    
  30   1.0000E+30  1.0000E+30  1.0000E+30  1.0000E+30  1.0000E+30  1.0000E+30  1.0000E+30  1.0000E+30  1.0000E+30  1.0000E+30
       1.0000E+30  1.0000E+30  1.0000E+30  1.0000E+30   111.4       111.3       112.0       115.5       119.6       113.0    
        109.1       89.96       61.35       43.77       31.87       25.85       20.08       15.66       11.70       8.736    
        6.334       5.586       4.076       4.359       4.132       3.901       3.674       3.456       2.191       1.123    
       0.5506      0.3294    
  31   1.0000E+30  1.0000E+30  1.0000E+30  1.0000E+30  1.0000E+30  1.0000E+30  1.0000E+30  1.0000E+30  1.0000E+30  1.0000E+30
       1.0000E+30  1.0000E+30  1.0000E+30  1.0000E+30   111.6       111.3       114.2       120.8       127.4       121.4    
        117.3       101.4       67.38       47.24       34.83       27.84       21.84       17.62       14.50       12.03    
        9.645       7.452       5.966       5.377       4.557       4.099       3.800       3.563       2.181       1.117    
       0.5504      0.3273    
  32   1.0000E+30  1.0000E+30  1.0000E+30  1.0000E+30  1.0000E+30  1.0000E+30  1.0000E+30  1.0000E+30  1.0000E+30  1.0000E+30
       1.0000E+30  1.0000E+30  1.0000E+30  1.0000E+30   112.1       112.1       114.9       122.3       128.4       127.5    
        122.3       104.4       65.42       54.57       42.45       33.03       23.30       19.79       17.38       15.63    
        13.52       12.49       11.05       9.971       7.643       5.887       4.739       3.717       2.010       1.124    
       0.5692      0.3366    
  33   1.0000E+30  1.0000E+30  1.0000E+30  1.0000E+30  1.0000E+30  1.0000E+30  1.0000E+30  1.0000E+30  1.0000E+30  1.0000E+30
       1.0000E+30  1.0000E+30  1.0000E+30  1.0000E+30   112.4       112.6       115.7       121.9       128.5       129.8    
        126.8       111.2       80.91       62.07       47.19       38.55       30.91       26.36       23.08       21.35    
        20.60       19.90       18.33       16.56       13.37       9.614       6.906       4.761       2.404       1.314    
       0.6514      0.3823    
  34   1.0000E+30  1.0000E+30  1.0000E+30  1.0000E+30  1.0000E+30  1.0000E+30  1.0000E+30  1.0000E+30  1.0000E+30  1.0000E+30
       1.0000E+30  1.0000E+30  1.0000E+30  1.0000E+30  1.0000E+30  1.0000E+30  1.0000E+30  1.0000E+30  1.0000E+30  1.0000E+30
       1.0000E+30  1.0000E+30  1.0000E+30  1.0000E+30   41.88       39.46       36.08       32.33       28.87       26.62    
        28.08       27.08       24.83       22.67       19.14       14.80       10.21       6.675       3.401       1.807    
       0.8551      0.4558    
  35   1.0000E+30  1.0000E+30  1.0000E+30  1.0000E+30  1.0000E+30  1.0000E+30  1.0000E+30  1.0000E+30  1.0000E+30  1.0000E+30
       1.0000E+30  1.0000E+30  1.0000E+30  1.0000E+30  1.0000E+30  1.0000E+30  1.0000E+30  1.0000E+30  1.0000E+30  1.0000E+30
       1.0000E+30  1.0000E+30  1.0000E+30  1.0000E+30   48.54       46.71       44.44       42.56       40.72       38.06    
        36.86       33.73       30.70       28.52       26.23       25.54       16.05       10.52       6.031       2.897    
        1.271      0.6534    
  36   1.0000E+30  1.0000E+30  1.0000E+30  1.0000E+30  1.0000E+30  1.0000E+30  1.0000E+30  1.0000E+30  1.0000E+30  1.0000E+30
       1.0000E+30  1.0000E+30  1.0000E+30  1.0000E+30  1.0000E+30  1.0000E+30  1.0000E+30  1.0000E+30  1.0000E+30  1.0000E+30
       1.0000E+30  1.0000E+30  1.0000E+30  1.0000E+30   57.68       56.72       55.93       54.65       52.88       49.66    
        45.35       39.92       36.17       34.18       33.61       35.59       27.30       19.35       13.49       4.607    
        1.743      0.8214    
  37   1.0000E+30  1.0000E+30  1.0000E+30  1.0000E+30  1.0000E+30  1.0000E+30  1.0000E+30  1.0000E+30  1.0000E+30  1.0000E+30
       1.0000E+30  1.0000E+30  1.0000E+30  1.0000E+30  1.0000E+30  1.0000E+30  1.0000E+30  1.0000E+30  1.0000E+30  1.0000E+30
       1.0000E+30  1.0000E+30  1.0000E+30  1.0000E+30   65.39       63.83       62.96       61.92       60.40       57.78    
        52.89       44.75       41.09       40.74       46.00       48.38      1.0000E+30  1.0000E+30  1.0000E+30  1.0000E+30
       1.0000E+30  1.0000E+30
  38   1.0000E+30  1.0000E+30  1.0000E+30  1.0000E+30  1.0000E+30  1.0000E+30  1.0000E+30  1.0000E+30  1.0000E+30  1.0000E+30
       1.0000E+30  1.0000E+30  1.0000E+30  1.0000E+30  1.0000E+30  1.0000E+30  1.0000E+30  1.0000E+30  1.0000E+30  1.0000E+30
       1.0000E+30  1.0000E+30  1.0000E+30  1.0000E+30   68.91       68.45       67.94       67.31       66.39       65.10    
        63.54      1.0000E+30  1.0000E+30  1.0000E+30  1.0000E+30  1.0000E+30  1.0000E+30  1.0000E+30  1.0000E+30  1.0000E+30
       1.0000E+30  1.0000E+30

 HEAD WILL BE SAVED ON UNIT 1018 AT END OF TIME STEP    1, STRESS PERIOD    1


  VOLUME BUDGET FOR ENTIRE MODEL AT END OF TIME STEP    1, STRESS PERIOD   1
  ---------------------------------------------------------------------------------------------------

     CUMULATIVE VOLUME      L**3       RATES FOR THIS TIME STEP      L**3/T          PACKAGE NAME    
     ------------------                 ------------------------                     ----------------

           IN:                                      IN:
           ---                                      ---
                 WEL =           0.0000                   WEL =           0.0000     WELL            
                 DRN =           0.0000                   DRN =           0.0000     DEBORDEMENT     
                 RCH =           1.8286                   RCH =           1.8286     RCH             
                 CHD =       4.5939E-04                   CHD =       4.5939E-04     SEA             
                 CHD =       9.9570E-02                   CHD =       9.9570E-02     RIV             
                 CHD =           0.1783                   CHD =           0.1783     PLIO            

            TOTAL IN =           2.1069              TOTAL IN =           2.1069

          OUT:                                     OUT:
          ----                                     ----
                 WEL =           1.1108                   WEL =           1.1108     WELL            
                 DRN =           0.5067                   DRN =           0.5067     DEBORDEMENT     
                 RCH =           0.1019                   RCH =           0.1019     RCH             
                 CHD =           0.3198                   CHD =           0.3198     SEA             
                 CHD =       6.7741E-02                   CHD =       6.7741E-02     RIV             
                 CHD =           0.0000                   CHD =           0.0000     PLIO            

           TOTAL OUT =           2.1069             TOTAL OUT =           2.1069

            IN - OUT =      -2.1749E-05              IN - OUT =      -2.1749E-05

 PERCENT DISCREPANCY =          -0.00     PERCENT DISCREPANCY =          -0.00




         TIME SUMMARY AT END OF TIME STEP    1 IN STRESS PERIOD    1
                    SECONDS     MINUTES      HOURS       DAYS        YEARS
                    -----------------------------------------------------------
   TIME STEP LENGTH  1.0000     1.66667E-02 2.77778E-04 1.15741E-05 3.16881E-08
 STRESS PERIOD TIME  1.0000     1.66667E-02 2.77778E-04 1.15741E-05 3.16881E-08
         TOTAL TIME  1.0000     1.66667E-02 2.77778E-04 1.15741E-05 3.16881E-08
