                                   MODFLOW 6
                U.S. GEOLOGICAL SURVEY MODULAR HYDROLOGIC MODEL
                          GROUNDWATER FLOW MODEL (GWF)
                            VERSION 6.0.4 03/13/2019

   MODFLOW 6 compiled Mar 21 2019 15:37:31 with IFORT compiler (ver. 19.0.0)

This software has been approved for release by the U.S. Geological 
Survey (USGS). Although the software has been subjected to rigorous 
review, the USGS reserves the right to update the software as needed 
pursuant to further analysis and review. No warranty, expressed or 
implied, is made by the USGS or the U.S. Government as to the 
functionality of the software and related material nor shall the 
fact of release constitute any such warranty. Furthermore, the 
software is released on condition that neither the USGS nor the U.S. 
Government shall be held liable for any damages resulting from its 
authorized or unauthorized use. Also refer to the USGS Water 
Resources Software User Rights Notice for complete use, copyright, 
and distribution information.


MODFLOW was compiled using uniform precision.
Precision of REAL variables: 15


 OPENED test_3D.dis
 FILE TYPE:DIS6                   UNIT 1005   STATUS:OLD                 
 FORMAT:FORMATTED              ACCESS:SEQUENTIAL          
 ACTION:READ                


 OPENED test_3D.ic
 FILE TYPE:IC6                    UNIT 1006   STATUS:OLD                 
 FORMAT:FORMATTED              ACCESS:SEQUENTIAL          
 ACTION:READ                


 OPENED test_3D.oc
 FILE TYPE:OC6                    UNIT 1007   STATUS:OLD                 
 FORMAT:FORMATTED              ACCESS:SEQUENTIAL          
 ACTION:READ                


 OPENED test_3D.npf
 FILE TYPE:NPF6                   UNIT 1008   STATUS:OLD                 
 FORMAT:FORMATTED              ACCESS:SEQUENTIAL          
 ACTION:READ                


 OPENED test_3D.wel
 FILE TYPE:WEL6                   UNIT 1009   STATUS:OLD                 
 FORMAT:FORMATTED              ACCESS:SEQUENTIAL          
 ACTION:READ                


 OPENED test_3D.rch
 FILE TYPE:RCH6                   UNIT 1010   STATUS:OLD                 
 FORMAT:FORMATTED              ACCESS:SEQUENTIAL          
 ACTION:READ                


 OPENED irri.rch
 FILE TYPE:RCH6                   UNIT 1011   STATUS:OLD                 
 FORMAT:FORMATTED              ACCESS:SEQUENTIAL          
 ACTION:READ                


 OPENED p_agri.rch
 FILE TYPE:RCH6                   UNIT 1012   STATUS:OLD                 
 FORMAT:FORMATTED              ACCESS:SEQUENTIAL          
 ACTION:READ                


 OPENED Corb.wel
 FILE TYPE:WEL6                   UNIT 1013   STATUS:OLD                 
 FORMAT:FORMATTED              ACCESS:SEQUENTIAL          
 ACTION:READ                


 OPENED sea.chd
 FILE TYPE:CHD6                   UNIT 1014   STATUS:OLD                 
 FORMAT:FORMATTED              ACCESS:SEQUENTIAL          
 ACTION:READ                


 OPENED thuir.chd
 FILE TYPE:CHD6                   UNIT 1015   STATUS:OLD                 
 FORMAT:FORMATTED              ACCESS:SEQUENTIAL          
 ACTION:READ                


 OPENED agly.riv
 FILE TYPE:RIV6                   UNIT 1016   STATUS:OLD                 
 FORMAT:FORMATTED              ACCESS:SEQUENTIAL          
 ACTION:READ                


 OPENED Tet.riv
 FILE TYPE:RIV6                   UNIT 1017   STATUS:OLD                 
 FORMAT:FORMATTED              ACCESS:SEQUENTIAL          
 ACTION:READ                


 OPENED Rea.riv
 FILE TYPE:RIV6                   UNIT 1018   STATUS:OLD                 
 FORMAT:FORMATTED              ACCESS:SEQUENTIAL          
 ACTION:READ                


 OPENED Cant.riv
 FILE TYPE:RIV6                   UNIT 1019   STATUS:OLD                 
 FORMAT:FORMATTED              ACCESS:SEQUENTIAL          
 ACTION:READ                


 OPENED Tech.riv
 FILE TYPE:RIV6                   UNIT 1020   STATUS:OLD                 
 FORMAT:FORMATTED              ACCESS:SEQUENTIAL          
 ACTION:READ                


 OPENED Bol.riv
 FILE TYPE:RIV6                   UNIT 1021   STATUS:OLD                 
 FORMAT:FORMATTED              ACCESS:SEQUENTIAL          
 ACTION:READ                


 DIS -- STRUCTURED GRID DISCRETIZATION PACKAGE, VERSION 2 : 3/27/2014 - INPUT READ FROM UNIT 1005


 # File generated by Flopy version 3.3.4 on 10/22/2021 at 10:24:24.
 PROCESSING DISCRETIZATION OPTIONS
    XORIGIN SPECIFIED AS     664525.000000000    
    YORIGIN SPECIFIED AS     6152875.00000000    
 END OF DISCRETIZATION OPTIONS
 MODEL LENGTH UNIT IS UNDEFINED
 PROCESSING DISCRETIZATION DIMENSIONS
    NLAY =       5
    NROW =     182
    NCOL =     183
 END OF DISCRETIZATION DIMENSIONS
 PROCESSING GRIDDATA
 END PROCESSING GRIDDATA

 THE SPECIFIED IDOMAIN RESULTS IN A REDUCED NUMBER OF CELLS.
 NUMBER OF USER NODES:  166530
 NUMBER OF NODES IN SOLUTION:   69651



 NPF -- NODE PROPERTY FLOW PACKAGE, VERSION 1, 3/30/2015 INPUT READ FROM UNIT 1008


 # File generated by Flopy version 3.3.4 on 10/22/2021 at 10:24:27.
 PROCESSING NPF OPTIONS
    CELL-BY-CELL FLOW INFORMATION WILL BE SAVED TO BINARY FILE WHENEVER ICBCFL IS NOT ZERO.
 END OF NPF OPTIONS

 WEL   -- WEL PACKAGE, VERSION 8, 2/22/2014 INPUT READ FROM UNIT 1009
 # File generated by Flopy version 3.3.4 on 10/22/2021 at 10:24:28.

 PROCESSING WEL OPTIONS
    FLOWS WILL BE SAVED TO BUDGET FILE SPECIFIED IN OUTPUT CONTROL
 END OF WEL OPTIONS

 PROCESSING WEL DIMENSIONS
    MAXBOUND =     291
 END OF WEL DIMENSIONS

 WEL   -- WEL PACKAGE, VERSION 8, 2/22/2014 INPUT READ FROM UNIT 1013
 # File generated by Flopy version 3.3.4 on 10/22/2021 at 10:24:29.

 PROCESSING WEL OPTIONS
    FLOWS WILL BE SAVED TO BUDGET FILE SPECIFIED IN OUTPUT CONTROL
 END OF WEL OPTIONS

 PROCESSING WEL DIMENSIONS
    MAXBOUND =      97
 END OF WEL DIMENSIONS

 RIV   -- RIV PACKAGE, VERSION 8, 2/22/2014 INPUT READ FROM UNIT 1016
 # File generated by Flopy version 3.3.4 on 10/22/2021 at 10:24:29.

 PROCESSING RIV OPTIONS
    FLOWS WILL BE SAVED TO BUDGET FILE SPECIFIED IN OUTPUT CONTROL
 END OF RIV OPTIONS

 PROCESSING RIV DIMENSIONS
    MAXBOUND =      86
 END OF RIV DIMENSIONS

 RIV   -- RIV PACKAGE, VERSION 8, 2/22/2014 INPUT READ FROM UNIT 1017
 # File generated by Flopy version 3.3.4 on 10/22/2021 at 10:24:29.

 PROCESSING RIV OPTIONS
    FLOWS WILL BE SAVED TO BUDGET FILE SPECIFIED IN OUTPUT CONTROL
 END OF RIV OPTIONS

 PROCESSING RIV DIMENSIONS
    MAXBOUND =     173
 END OF RIV DIMENSIONS

 RIV   -- RIV PACKAGE, VERSION 8, 2/22/2014 INPUT READ FROM UNIT 1018
 # File generated by Flopy version 3.3.4 on 10/22/2021 at 10:24:29.

 PROCESSING RIV OPTIONS
    FLOWS WILL BE SAVED TO BUDGET FILE SPECIFIED IN OUTPUT CONTROL
 END OF RIV OPTIONS

 PROCESSING RIV DIMENSIONS
    MAXBOUND =     129
 END OF RIV DIMENSIONS

 RIV   -- RIV PACKAGE, VERSION 8, 2/22/2014 INPUT READ FROM UNIT 1019
 # File generated by Flopy version 3.3.4 on 10/22/2021 at 10:24:29.

 PROCESSING RIV OPTIONS
    FLOWS WILL BE SAVED TO BUDGET FILE SPECIFIED IN OUTPUT CONTROL
 END OF RIV OPTIONS

 PROCESSING RIV DIMENSIONS
    MAXBOUND =      66
 END OF RIV DIMENSIONS

 RIV   -- RIV PACKAGE, VERSION 8, 2/22/2014 INPUT READ FROM UNIT 1020
 # File generated by Flopy version 3.3.4 on 10/22/2021 at 10:24:30.

 PROCESSING RIV OPTIONS
    FLOWS WILL BE SAVED TO BUDGET FILE SPECIFIED IN OUTPUT CONTROL
 END OF RIV OPTIONS

 PROCESSING RIV DIMENSIONS
    MAXBOUND =     113
 END OF RIV DIMENSIONS

 RIV   -- RIV PACKAGE, VERSION 8, 2/22/2014 INPUT READ FROM UNIT 1021
 # File generated by Flopy version 3.3.4 on 10/22/2021 at 10:24:30.

 PROCESSING RIV OPTIONS
    FLOWS WILL BE SAVED TO BUDGET FILE SPECIFIED IN OUTPUT CONTROL
 END OF RIV OPTIONS

 PROCESSING RIV DIMENSIONS
    MAXBOUND =      47
 END OF RIV DIMENSIONS

 RCH   -- RCH PACKAGE, VERSION 8, 2/22/2014 INPUT READ FROM UNIT 1010
 # File generated by Flopy version 3.3.4 on 10/22/2021 at 10:24:29.

 PROCESSING RCH OPTIONS
    FLOWS WILL BE SAVED TO BUDGET FILE SPECIFIED IN OUTPUT CONTROL
 END OF RCH OPTIONS

 PROCESSING RCH DIMENSIONS
    MAXBOUND =   10115
 END OF RCH DIMENSIONS

 RCH   -- RCH PACKAGE, VERSION 8, 2/22/2014 INPUT READ FROM UNIT 1011
 # File generated by Flopy version 3.3.4 on 10/22/2021 at 10:24:29.

 PROCESSING RCH OPTIONS
    FLOWS WILL BE SAVED TO BUDGET FILE SPECIFIED IN OUTPUT CONTROL
 END OF RCH OPTIONS

 PROCESSING RCH DIMENSIONS
    MAXBOUND =    1758
 END OF RCH DIMENSIONS

 RCH   -- RCH PACKAGE, VERSION 8, 2/22/2014 INPUT READ FROM UNIT 1012
 # File generated by Flopy version 3.3.4 on 10/22/2021 at 10:24:29.

 PROCESSING RCH OPTIONS
    FLOWS WILL BE SAVED TO BUDGET FILE SPECIFIED IN OUTPUT CONTROL
 END OF RCH OPTIONS

 PROCESSING RCH DIMENSIONS
    MAXBOUND =    6702
 END OF RCH DIMENSIONS

 CHD   -- CHD PACKAGE, VERSION 8, 2/22/2014 INPUT READ FROM UNIT 1014
 # File generated by Flopy version 3.3.4 on 10/22/2021 at 10:24:29.

 PROCESSING CHD OPTIONS
    FLOWS WILL BE SAVED TO BUDGET FILE SPECIFIED IN OUTPUT CONTROL
 END OF CHD OPTIONS

 PROCESSING CHD DIMENSIONS
    MAXBOUND =    7350
 END OF CHD DIMENSIONS

 CHD   -- CHD PACKAGE, VERSION 8, 2/22/2014 INPUT READ FROM UNIT 1015
 # File generated by Flopy version 3.3.4 on 10/22/2021 at 10:24:29.

 PROCESSING CHD OPTIONS
    FLOWS WILL BE SAVED TO BUDGET FILE SPECIFIED IN OUTPUT CONTROL
 END OF CHD OPTIONS

 PROCESSING CHD DIMENSIONS
    MAXBOUND =      32
 END OF CHD DIMENSIONS

 IC -- INITIAL CONDITIONS PACKAGE, VERSION 8, 3/28/2015 INPUT READ FROM UNIT 1006
 # File generated by Flopy version 3.3.4 on 10/22/2021 at 10:24:26.
 PROCESSING GRIDDATA
 END PROCESSING GRIDDATA
 PROCESSING GRIDDATA

                ICELLTYPE = 0
 K33 not provided.  Assuming K33 = K.
 K22 not provided.  Assuming K22 = K.
 END PROCESSING GRIDDATA
    BINARY GRID INFORMATION WILL BE WRITTEN TO:
      UNIT NUMBER: 1023
      FILE NAME: C:\Users\Ludovic\Documents(sauvegarde)\Github\TM_Ludovic_Schorpp\codes_flopy\Modeles3D\test_3D\working\test_3D.dis.grb

 OPENED C:\Users\Ludovic\Documents(sauvegarde)\Github\TM_Ludovic_Schorpp\codes_flopy\Modeles3D\test_3D\working\test_3D.dis.grb
 FILE TYPE:DATA(BINARY)   UNIT 1023   STATUS:REPLACE             
 FORMAT:UNFORMATTED            ACCESS:STREAM              
 ACTION:READWRITE           

      THE LAST TIME STEP WILL BE PRINTED
      THE LAST TIME STEP WILL BE PRINTED
 # File generated by Flopy version 3.3.4 on 10/22/2021 at 10:24:27.
 PROCESSING OC OPTIONS
    BUDGET INFORMATION WILL BE WRITTEN TO:
      UNIT NUMBER: 1024
      FILE NAME: test_3D.cbc

 OPENED test_3D.cbc
 FILE TYPE:DATA(BINARY)   UNIT 1024   STATUS:REPLACE             
 FORMAT:UNFORMATTED            ACCESS:STREAM              
 ACTION:READWRITE           

    HEAD INFORMATION WILL BE WRITTEN TO:
      UNIT NUMBER: 1025
      FILE NAME: test_3D.hds

 OPENED test_3D.hds
 FILE TYPE:DATA(BINARY)   UNIT 1025   STATUS:REPLACE             
 FORMAT:UNFORMATTED            ACCESS:STREAM              
 ACTION:READWRITE           

 END OF OC OPTIONS

 BEGIN READING OUTPUT CONTROL FOR STRESS PERIOD 1
      THE LAST TIME STEP WILL BE SAVED
      THE LAST TIME STEP WILL BE SAVED
      ALL TIME STEPS WILL BE PRINTED

 END READING OUTPUT CONTROL FOR STRESS PERIOD 1
 UBDSV1 SAVING     FLOW-JA-FACE ON UNIT   1024 AT TIME STEP      1, STRESS PERIOD      1
 UBDSV06 SAVING       DATA-SPDIS IN MODEL TEST_3D          PACKAGE NPF             CONNECTED TO MODEL TEST_3D          PACKAGE NPF              ON UNIT   1024 AT TIME STEP      1, STRESS PERIOD      1
 UBDSV06 SAVING              WEL IN MODEL TEST_3D          PACKAGE TEST_3D         CONNECTED TO MODEL TEST_3D          PACKAGE WEL              ON UNIT   1024 AT TIME STEP      1, STRESS PERIOD      1
 UBDSV06 SAVING              WEL IN MODEL TEST_3D          PACKAGE TEST_3D         CONNECTED TO MODEL TEST_3D          PACKAGE CORB             ON UNIT   1024 AT TIME STEP      1, STRESS PERIOD      1
 UBDSV06 SAVING              RIV IN MODEL TEST_3D          PACKAGE TEST_3D         CONNECTED TO MODEL TEST_3D          PACKAGE AGLY             ON UNIT   1024 AT TIME STEP      1, STRESS PERIOD      1
 UBDSV06 SAVING              RIV IN MODEL TEST_3D          PACKAGE TEST_3D         CONNECTED TO MODEL TEST_3D          PACKAGE TET              ON UNIT   1024 AT TIME STEP      1, STRESS PERIOD      1
 UBDSV06 SAVING              RIV IN MODEL TEST_3D          PACKAGE TEST_3D         CONNECTED TO MODEL TEST_3D          PACKAGE REA              ON UNIT   1024 AT TIME STEP      1, STRESS PERIOD      1
 UBDSV06 SAVING              RIV IN MODEL TEST_3D          PACKAGE TEST_3D         CONNECTED TO MODEL TEST_3D          PACKAGE CANT             ON UNIT   1024 AT TIME STEP      1, STRESS PERIOD      1
 UBDSV06 SAVING              RIV IN MODEL TEST_3D          PACKAGE TEST_3D         CONNECTED TO MODEL TEST_3D          PACKAGE TECH             ON UNIT   1024 AT TIME STEP      1, STRESS PERIOD      1
 UBDSV06 SAVING              RIV IN MODEL TEST_3D          PACKAGE TEST_3D         CONNECTED TO MODEL TEST_3D          PACKAGE BOL              ON UNIT   1024 AT TIME STEP      1, STRESS PERIOD      1
 UBDSV06 SAVING              RCH IN MODEL TEST_3D          PACKAGE TEST_3D         CONNECTED TO MODEL TEST_3D          PACKAGE RCH              ON UNIT   1024 AT TIME STEP      1, STRESS PERIOD      1
 UBDSV06 SAVING              RCH IN MODEL TEST_3D          PACKAGE TEST_3D         CONNECTED TO MODEL TEST_3D          PACKAGE IRRIG            ON UNIT   1024 AT TIME STEP      1, STRESS PERIOD      1
 UBDSV06 SAVING              RCH IN MODEL TEST_3D          PACKAGE TEST_3D         CONNECTED TO MODEL TEST_3D          PACKAGE P_AGRI           ON UNIT   1024 AT TIME STEP      1, STRESS PERIOD      1
 UBDSV06 SAVING              CHD IN MODEL TEST_3D          PACKAGE TEST_3D         CONNECTED TO MODEL TEST_3D          PACKAGE SEA              ON UNIT   1024 AT TIME STEP      1, STRESS PERIOD      1
 UBDSV06 SAVING              CHD IN MODEL TEST_3D          PACKAGE TEST_3D         CONNECTED TO MODEL TEST_3D          PACKAGE THUIR            ON UNIT   1024 AT TIME STEP      1, STRESS PERIOD      1

 HEAD WILL BE SAVED ON UNIT 1025 AT END OF TIME STEP    1, STRESS PERIOD    1


  VOLUME BUDGET FOR ENTIRE MODEL AT END OF TIME STEP    1, STRESS PERIOD   1
  ---------------------------------------------------------------------------------------------------

     CUMULATIVE VOLUME      L**3       RATES FOR THIS TIME STEP      L**3/T          PACKAGE NAME    
     ------------------                 ------------------------                     ----------------

           IN:                                      IN:
           ---                                      ---
                 WEL =           0.0000                   WEL =           0.0000     WEL             
                 WEL =           0.2000                   WEL =           0.2000     CORB            
                 RIV =       1.4915E-02                   RIV =       1.4915E-02     AGLY            
                 RIV =           0.1100                   RIV =           0.1100     TET             
                 RIV =           0.1334                   RIV =           0.1334     REA             
                 RIV =           0.1930                   RIV =           0.1930     CANT            
                 RIV =           0.1788                   RIV =           0.1788     TECH            
                 RIV =           0.3138                   RIV =           0.3138     BOL             
                 RCH =           3.3802                   RCH =           3.3802     RCH             
                 RCH =           0.5218                   RCH =           0.5218     IRRIG           
                 RCH =           0.0000                   RCH =           0.0000     P_AGRI          
                 CHD =          10.3038                   CHD =          10.3038     SEA             
                 CHD =           0.8085                   CHD =           0.8085     THUIR           

            TOTAL IN =          16.1581              TOTAL IN =          16.1581

          OUT:                                     OUT:
          ----                                     ----
                 WEL =           1.3716                   WEL =           1.3716     WEL             
                 WEL =           0.0000                   WEL =           0.0000     CORB            
                 RIV =           0.3131                   RIV =           0.3131     AGLY            
                 RIV =           1.1733                   RIV =           1.1733     TET             
                 RIV =           0.1746                   RIV =           0.1746     REA             
                 RIV =           0.1161                   RIV =           0.1161     CANT            
                 RIV =           0.2352                   RIV =           0.2352     TECH            
                 RIV =       3.1844E-03                   RIV =       3.1844E-03     BOL             
                 RCH =           0.0000                   RCH =           0.0000     RCH             
                 RCH =           0.0000                   RCH =           0.0000     IRRIG           
                 RCH =           0.6839                   RCH =           0.6839     P_AGRI          
                 CHD =          12.0556                   CHD =          12.0556     SEA             
                 CHD =       3.1041E-02                   CHD =       3.1041E-02     THUIR           

           TOTAL OUT =          16.1577             TOTAL OUT =          16.1577

            IN - OUT =       3.8523E-04              IN - OUT =       3.8523E-04

 PERCENT DISCREPANCY =           0.00     PERCENT DISCREPANCY =           0.00




         TIME SUMMARY AT END OF TIME STEP    1 IN STRESS PERIOD    1
                    SECONDS     MINUTES      HOURS       DAYS        YEARS
                    -----------------------------------------------------------
   TIME STEP LENGTH  1.0000     1.66667E-02 2.77778E-04 1.15741E-05 3.16881E-08
 STRESS PERIOD TIME  1.0000     1.66667E-02 2.77778E-04 1.15741E-05 3.16881E-08
         TOTAL TIME  1.0000     1.66667E-02 2.77778E-04 1.15741E-05 3.16881E-08
