                                   MODFLOW 6
                U.S. GEOLOGICAL SURVEY MODULAR HYDROLOGIC MODEL
                            VERSION 6.0.4 03/13/2019

   MODFLOW 6 compiled Mar 21 2019 15:37:31 with IFORT compiler (ver. 19.0.0)

This software has been approved for release by the U.S. Geological 
Survey (USGS). Although the software has been subjected to rigorous 
review, the USGS reserves the right to update the software as needed 
pursuant to further analysis and review. No warranty, expressed or 
implied, is made by the USGS or the U.S. Government as to the 
functionality of the software and related material nor shall the 
fact of release constitute any such warranty. Furthermore, the 
software is released on condition that neither the USGS nor the U.S. 
Government shall be held liable for any damages resulting from its 
authorized or unauthorized use. Also refer to the USGS Water 
Resources Software User Rights Notice for complete use, copyright, 
and distribution information.


System command used to initiate simulation:
../exe/mf6.exe

MODFLOW was compiled using uniform precision.
Real Variables
  PRECISION: 15
  KIND: 8
  TINY (smallest non-zero value):    2.225074-308
  HUGE (largest value):    1.797693+308
Integer Variables
  KIND: 4
  HUGE (largest value): 2147483647
  BIT_SIZE: 32
 

 OPENED mfsim.nam
 FILE TYPE:NAM   UNIT 1001   STATUS:OLD                 
 FORMAT:FORMATTED              ACCESS:SEQUENTIAL          
 ACTION:READ                


 READING SIMULATION OPTIONS
 END OF SIMULATION OPTIONS

 READING SIMULATION TIMING

 OPENED test_trans.tdis
 FILE TYPE:TDIS   UNIT 1002   STATUS:OLD                 
 FORMAT:FORMATTED              ACCESS:SEQUENTIAL          
 ACTION:READ                


 TDIS -- TEMPORAL DISCRETIZATION PACKAGE,
 VERSION 1 : 11/13/2014 - INPUT READ FROM UNIT 1002
 PROCESSING TDIS OPTIONS
    SIMULATION TIME UNIT IS DAYS
 END OF TDIS OPTIONS
 PROCESSING TDIS DIMENSIONS
   36 STRESS PERIOD(S) IN SIMULATION
 END OF TDIS DIMENSIONS
 PROCESSING TDIS PERIODDATA


 STRESS PERIOD     LENGTH       TIME STEPS     MULTIPLIER FOR DELT
 ----------------------------------------------------------------------------
        1         1.000000          1                    1.000
        2         30.00000         10                    1.000
        3         30.00000         10                    1.000
        4         30.00000         10                    1.000
        5         30.00000         10                    1.000
        6         30.00000         10                    1.000
        7         30.00000         10                    1.000
        8         30.00000         10                    1.000
        9         30.00000         10                    1.000
       10         30.00000         10                    1.000
       11         30.00000         10                    1.000
       12         30.00000         10                    1.000
       13         30.00000         10                    1.000
       14         30.00000         10                    1.000
       15         30.00000         10                    1.000
       16         30.00000         10                    1.000
       17         30.00000         10                    1.000
       18         30.00000         10                    1.000
       19         30.00000         10                    1.000
       20         30.00000         10                    1.000
       21         30.00000         10                    1.000
       22         30.00000         10                    1.000
       23         30.00000         10                    1.000
       24         30.00000         10                    1.000
       25         30.00000         10                    1.000
       26         30.00000         10                    1.000
       27         30.00000         10                    1.000
       28         30.00000         10                    1.000
       29         30.00000         10                    1.000
       30         30.00000         10                    1.000
       31         30.00000         10                    1.000
       32         30.00000         10                    1.000
       33         30.00000         10                    1.000
       34         30.00000         10                    1.000
       35         30.00000         10                    1.000
       36         30.00000         10                    1.000
 END OF TDIS PERIODDATA
 END OF SIMULATION TIMING

 READING SIMULATION MODELS
    GWF6 model TEST_TRANS will be created as model 1
 END OF SIMULATION MODELS

 READING SIMULATION EXCHANGES
 END OF SIMULATION EXCHANGES

 READING SOLUTIONGROUP

 Creating solution: SLN_1           

 OPENED test_trans.ims
 FILE TYPE:IMS   UNIT 1013   STATUS:OLD                 
 FORMAT:FORMATTED              ACCESS:SEQUENTIAL          
 ACTION:READ                

 END OF SIMULATION SOLUTIONGROUP

 IMS -- ITERATIVE MODEL SOLUTION PACKAGE, VERSION 6, 4/28/2017
         INPUT READ FROM UNIT 1013

 PROCESSING IMS OPTIONS
 MODERATE OPTION:
 DEFAULT SOLVER INPUT VALUES REFLECT MODERETELY NONLINEAR MODEL
 END OF IMS OPTIONS

 PROCESSING IMS NONLINEAR
 END OF IMS NONLINEAR DATA
 ***UNDER-RELAXATION WILL NOT BE USED***
 
 ***IMS LINEAR SOLVER WILL BE USED***

 IMSLINEAR -- UNSTRUCTURED LINEAR SOLUTION PACKAGE, VERSION 8, 04/28/2017

 PROCESSING LINEAR DATA
 END OF LINEAR DATA
 
 OUTER ITERATION CONVERGENCE CRITERION     (HCLOSE) =    0.100000E-03
 OUTER ITERATION BOUNDARY FLOW RESIDUAL (RCLOSEBND) =    0.100000E+00
 MAXIMUM NUMBER OF OUTER ITERATIONS        (MXITER) =       500
 SOLVER PRINTOUT INDEX                     (IPRIMS) =         1
 NONLINEAR ITERATION METHOD            (NONLINMETH) =         0
 LINEAR SOLUTION METHOD                   (LINMETH) =         1

       SOLUTION BY THE        CONJUGATE-GRADIENT       METHOD
 ------------------------------------------------------------------
 MAXIMUM OF    500 CALLS OF SOLUTION ROUTINE
 MAXIMUM OF    100 INTERNAL ITERATIONS PER CALL TO SOLUTION ROUTINE
 LINEAR ACCELERATION METHOD            = CG        
 MATRIX PRECONDITIONING TYPE           = MOD. INCOMPLETE LU  
 MATRIX SCALING APPROACH               = NO SCALING          
 MATRIX REORDERING APPROACH            = ORIGINAL ORDERING        
 NUMBER OF ORTHOGONALIZATIONS          =        0
 HEAD CHANGE CRITERION FOR CLOSURE     =    0.10000E-03
 RESIDUAL CHANGE CRITERION FOR CLOSURE =    0.10000E-02
 RESIDUAL CONVERGENCE OPTION           =        0
 RESIDUAL CONVERGENCE NORM             = INFINITY NORM   
 RELAXATION FACTOR                     =    0.97000E+00



1
                            STRESS PERIOD NO.    1, LENGTH =   1.000000    
                            -----------------------------------------------

                              NUMBER OF TIME STEPS =     1

                               MULTIPLIER FOR DELT =     1.000

                            INITIAL TIME STEP SIZE =   1.000000    


 OUTER ITERATION SUMMARY
 ---------------------------------------------------------------------------------------
                       OUTER     INNER         MAXIMUM                    MAXIMUM CHANGE
                   ITERATION ITERATION          CHANGE                    MODEL-(CELLID)
 ---------------------------------------------------------------------------------------
 Linear Solver             1        19     6.14297                        1_GWF-(1,22,1)
 Under-relaxation          1               6.14297                        1_GWF-(1,22,1)
 Linear Solver             2        20    -3.23793                        1_GWF-(1,21,1)
 Under-relaxation          2              -3.23793                        1_GWF-(1,21,1)
 Linear Solver             3        17    0.556171                        1_GWF-(1,20,1)
 Under-relaxation          3              0.556171                        1_GWF-(1,20,1)
 Linear Solver             4        15   -0.100343                        1_GWF-(1,23,1)
 Under-relaxation          4             -0.100343                        1_GWF-(1,23,1)
 Linear Solver             5        14    6.906608E-03                    1_GWF-(1,22,1)
 Under-relaxation          5              6.906608E-03                    1_GWF-(1,22,1)
 Linear Solver             6         9    2.310486E-03                   1_GWF-(1,30,13)
 Under-relaxation          6              2.310486E-03                   1_GWF-(1,30,13)
 Linear Solver             7         2    2.869966E-04                    1_GWF-(1,1,26)
 Under-relaxation          7              2.869966E-04                    1_GWF-(1,1,26)
 Linear Solver             8         1   -6.424808E-05                    1_GWF-(1,11,3)

 8 CALLS TO NUMERICAL SOLUTION IN TIME STEP 1 STRESS PERIOD 1
 97 TOTAL ITERATIONS
1
                            STRESS PERIOD NO.    2, LENGTH =   30.00000    
                            -----------------------------------------------

                              NUMBER OF TIME STEPS =    10

                               MULTIPLIER FOR DELT =     1.000

                            INITIAL TIME STEP SIZE =   3.000000    


 OUTER ITERATION SUMMARY
 ---------------------------------------------------------------------------------------
                       OUTER     INNER         MAXIMUM                    MAXIMUM CHANGE
                   ITERATION ITERATION          CHANGE                    MODEL-(CELLID)
 ---------------------------------------------------------------------------------------
 Linear Solver             1         5   -2.504016E-02                    1_GWF-(1,6,29)
 Under-relaxation          1             -2.504016E-02                    1_GWF-(1,6,29)
 Linear Solver             2         3    2.297386E-03                    1_GWF-(1,3,28)
 Under-relaxation          2              2.297386E-03                    1_GWF-(1,3,28)
 Linear Solver             3         2    1.665122E-04                    1_GWF-(1,1,29)
 Under-relaxation          3              1.665122E-04                    1_GWF-(1,1,29)
 Linear Solver             4         1   -2.414671E-05                    1_GWF-(1,3,27)

 4 CALLS TO NUMERICAL SOLUTION IN TIME STEP 1 STRESS PERIOD 2
 11 TOTAL ITERATIONS


 OUTER ITERATION SUMMARY
 ---------------------------------------------------------------------------------------
                       OUTER     INNER         MAXIMUM                    MAXIMUM CHANGE
                   ITERATION ITERATION          CHANGE                    MODEL-(CELLID)
 ---------------------------------------------------------------------------------------
 Linear Solver             1         4    8.141693E-03                    1_GWF-(1,10,1)
 Under-relaxation          1              8.141693E-03                    1_GWF-(1,10,1)
 Linear Solver             2         3    7.683022E-04                    1_GWF-(1,1,27)
 Under-relaxation          2              7.683022E-04                    1_GWF-(1,1,27)
 Linear Solver             3         1    6.116558E-05                    1_GWF-(1,2,29)

 3 CALLS TO NUMERICAL SOLUTION IN TIME STEP 2 STRESS PERIOD 2
 8 TOTAL ITERATIONS


 OUTER ITERATION SUMMARY
 ---------------------------------------------------------------------------------------
                       OUTER     INNER         MAXIMUM                    MAXIMUM CHANGE
                   ITERATION ITERATION          CHANGE                    MODEL-(CELLID)
 ---------------------------------------------------------------------------------------
 Linear Solver             1         4    8.071512E-03                     1_GWF-(1,1,1)
 Under-relaxation          1              8.071512E-03                     1_GWF-(1,1,1)
 Linear Solver             2         2    3.641322E-04                    1_GWF-(1,1,27)
 Under-relaxation          2              3.641322E-04                    1_GWF-(1,1,27)
 Linear Solver             3         1    2.702211E-05                   1_GWF-(1,29,29)

 3 CALLS TO NUMERICAL SOLUTION IN TIME STEP 3 STRESS PERIOD 2
 7 TOTAL ITERATIONS


 OUTER ITERATION SUMMARY
 ---------------------------------------------------------------------------------------
                       OUTER     INNER         MAXIMUM                    MAXIMUM CHANGE
                   ITERATION ITERATION          CHANGE                    MODEL-(CELLID)
 ---------------------------------------------------------------------------------------
 Linear Solver             1         4    7.999918E-03                    1_GWF-(1,26,2)
 Under-relaxation          1              7.999918E-03                    1_GWF-(1,26,2)
 Linear Solver             2         2    2.077053E-04                   1_GWF-(1,30,28)
 Under-relaxation          2              2.077053E-04                   1_GWF-(1,30,28)
 Linear Solver             3         1   -1.576791E-05                   1_GWF-(1,30,26)

 3 CALLS TO NUMERICAL SOLUTION IN TIME STEP 4 STRESS PERIOD 2
 7 TOTAL ITERATIONS


 OUTER ITERATION SUMMARY
 ---------------------------------------------------------------------------------------
                       OUTER     INNER         MAXIMUM                    MAXIMUM CHANGE
                   ITERATION ITERATION          CHANGE                    MODEL-(CELLID)
 ---------------------------------------------------------------------------------------
 Linear Solver             1         4    7.921267E-03                    1_GWF-(1,25,1)
 Under-relaxation          1              7.921267E-03                    1_GWF-(1,25,1)
 Linear Solver             2         2    1.871154E-04                   1_GWF-(1,30,29)
 Under-relaxation          2              1.871154E-04                   1_GWF-(1,30,29)
 Linear Solver             3         1   -1.600898E-05                   1_GWF-(1,30,27)

 3 CALLS TO NUMERICAL SOLUTION IN TIME STEP 5 STRESS PERIOD 2
 7 TOTAL ITERATIONS


 OUTER ITERATION SUMMARY
 ---------------------------------------------------------------------------------------
                       OUTER     INNER         MAXIMUM                    MAXIMUM CHANGE
                   ITERATION ITERATION          CHANGE                    MODEL-(CELLID)
 ---------------------------------------------------------------------------------------
 Linear Solver             1         4    7.837316E-03                    1_GWF-(1,25,1)
 Under-relaxation          1              7.837316E-03                    1_GWF-(1,25,1)
 Linear Solver             2         2    2.117370E-04                   1_GWF-(1,30,29)
 Under-relaxation          2              2.117370E-04                   1_GWF-(1,30,29)
 Linear Solver             3         1   -1.880384E-05                   1_GWF-(1,30,28)

 3 CALLS TO NUMERICAL SOLUTION IN TIME STEP 6 STRESS PERIOD 2
 7 TOTAL ITERATIONS


 OUTER ITERATION SUMMARY
 ---------------------------------------------------------------------------------------
                       OUTER     INNER         MAXIMUM                    MAXIMUM CHANGE
                   ITERATION ITERATION          CHANGE                    MODEL-(CELLID)
 ---------------------------------------------------------------------------------------
 Linear Solver             1         4    7.747498E-03                    1_GWF-(1,25,1)
 Under-relaxation          1              7.747498E-03                    1_GWF-(1,25,1)
 Linear Solver             2         2    2.244237E-04                   1_GWF-(1,30,29)
 Under-relaxation          2              2.244237E-04                   1_GWF-(1,30,29)
 Linear Solver             3         1   -2.125060E-05                   1_GWF-(1,30,28)

 3 CALLS TO NUMERICAL SOLUTION IN TIME STEP 7 STRESS PERIOD 2
 7 TOTAL ITERATIONS


 OUTER ITERATION SUMMARY
 ---------------------------------------------------------------------------------------
                       OUTER     INNER         MAXIMUM                    MAXIMUM CHANGE
                   ITERATION ITERATION          CHANGE                    MODEL-(CELLID)
 ---------------------------------------------------------------------------------------
 Linear Solver             1         4    7.652187E-03                    1_GWF-(1,25,1)
 Under-relaxation          1              7.652187E-03                    1_GWF-(1,25,1)
 Linear Solver             2         2    2.303328E-04                   1_GWF-(1,30,29)
 Under-relaxation          2              2.303328E-04                   1_GWF-(1,30,29)
 Linear Solver             3         1   -2.247408E-05                   1_GWF-(1,30,28)

 3 CALLS TO NUMERICAL SOLUTION IN TIME STEP 8 STRESS PERIOD 2
 7 TOTAL ITERATIONS


 OUTER ITERATION SUMMARY
 ---------------------------------------------------------------------------------------
                       OUTER     INNER         MAXIMUM                    MAXIMUM CHANGE
                   ITERATION ITERATION          CHANGE                    MODEL-(CELLID)
 ---------------------------------------------------------------------------------------
 Linear Solver             1         4    7.551949E-03                    1_GWF-(1,25,1)
 Under-relaxation          1              7.551949E-03                    1_GWF-(1,25,1)
 Linear Solver             2         2    2.323820E-04                   1_GWF-(1,30,29)
 Under-relaxation          2              2.323820E-04                   1_GWF-(1,30,29)
 Linear Solver             3         1   -2.304351E-05                   1_GWF-(1,30,28)

 3 CALLS TO NUMERICAL SOLUTION IN TIME STEP 9 STRESS PERIOD 2
 7 TOTAL ITERATIONS


 OUTER ITERATION SUMMARY
 ---------------------------------------------------------------------------------------
                       OUTER     INNER         MAXIMUM                    MAXIMUM CHANGE
                   ITERATION ITERATION          CHANGE                    MODEL-(CELLID)
 ---------------------------------------------------------------------------------------
 Linear Solver             1         4    7.447549E-03                    1_GWF-(1,25,1)
 Under-relaxation          1              7.447549E-03                    1_GWF-(1,25,1)
 Linear Solver             2         2    2.321628E-04                   1_GWF-(1,30,29)
 Under-relaxation          2              2.321628E-04                   1_GWF-(1,30,29)
 Linear Solver             3         1   -2.324261E-05                   1_GWF-(1,30,28)

 3 CALLS TO NUMERICAL SOLUTION IN TIME STEP 10 STRESS PERIOD 2
 7 TOTAL ITERATIONS
1
                            STRESS PERIOD NO.    3, LENGTH =   30.00000    
                            -----------------------------------------------

                              NUMBER OF TIME STEPS =    10

                               MULTIPLIER FOR DELT =     1.000

                            INITIAL TIME STEP SIZE =   3.000000    


 OUTER ITERATION SUMMARY
 ---------------------------------------------------------------------------------------
                       OUTER     INNER         MAXIMUM                    MAXIMUM CHANGE
                   ITERATION ITERATION          CHANGE                    MODEL-(CELLID)
 ---------------------------------------------------------------------------------------
 Linear Solver             1         4   -8.032863E-03                    1_GWF-(1,1,26)
 Under-relaxation          1             -8.032863E-03                    1_GWF-(1,1,26)
 Linear Solver             2         3   -5.866042E-04                   1_GWF-(1,30,29)
 Under-relaxation          2             -5.866042E-04                   1_GWF-(1,30,29)
 Linear Solver             3         1    6.286952E-05                   1_GWF-(1,30,28)

 3 CALLS TO NUMERICAL SOLUTION IN TIME STEP 1 STRESS PERIOD 3
 8 TOTAL ITERATIONS


 OUTER ITERATION SUMMARY
 ---------------------------------------------------------------------------------------
                       OUTER     INNER         MAXIMUM                    MAXIMUM CHANGE
                   ITERATION ITERATION          CHANGE                    MODEL-(CELLID)
 ---------------------------------------------------------------------------------------
 Linear Solver             1         4   -7.173203E-03                    1_GWF-(1,1,24)
 Under-relaxation          1             -7.173203E-03                    1_GWF-(1,1,24)
 Linear Solver             2         2   -4.974180E-04                   1_GWF-(1,30,29)
 Under-relaxation          2             -4.974180E-04                   1_GWF-(1,30,29)
 Linear Solver             3         1    5.685515E-05                   1_GWF-(1,30,28)

 3 CALLS TO NUMERICAL SOLUTION IN TIME STEP 2 STRESS PERIOD 3
 7 TOTAL ITERATIONS


 OUTER ITERATION SUMMARY
 ---------------------------------------------------------------------------------------
                       OUTER     INNER         MAXIMUM                    MAXIMUM CHANGE
                   ITERATION ITERATION          CHANGE                    MODEL-(CELLID)
 ---------------------------------------------------------------------------------------
 Linear Solver             1         4   -6.617157E-03                    1_GWF-(1,1,23)
 Under-relaxation          1             -6.617157E-03                    1_GWF-(1,1,23)
 Linear Solver             2         2   -4.305053E-04                   1_GWF-(1,30,29)
 Under-relaxation          2             -4.305053E-04                   1_GWF-(1,30,29)
 Linear Solver             3         1    4.783270E-05                   1_GWF-(1,30,28)

 3 CALLS TO NUMERICAL SOLUTION IN TIME STEP 3 STRESS PERIOD 3
 7 TOTAL ITERATIONS


 OUTER ITERATION SUMMARY
 ---------------------------------------------------------------------------------------
                       OUTER     INNER         MAXIMUM                    MAXIMUM CHANGE
                   ITERATION ITERATION          CHANGE                    MODEL-(CELLID)
 ---------------------------------------------------------------------------------------
 Linear Solver             1         4   -6.211028E-03                    1_GWF-(1,1,22)
 Under-relaxation          1             -6.211028E-03                    1_GWF-(1,1,22)
 Linear Solver             2         2   -3.820997E-04                   1_GWF-(1,30,29)
 Under-relaxation          2             -3.820997E-04                   1_GWF-(1,30,29)
 Linear Solver             3         1    4.149627E-05                   1_GWF-(1,30,28)

 3 CALLS TO NUMERICAL SOLUTION IN TIME STEP 4 STRESS PERIOD 3
 7 TOTAL ITERATIONS


 OUTER ITERATION SUMMARY
 ---------------------------------------------------------------------------------------
                       OUTER     INNER         MAXIMUM                    MAXIMUM CHANGE
                   ITERATION ITERATION          CHANGE                    MODEL-(CELLID)
 ---------------------------------------------------------------------------------------
 Linear Solver             1         4   -5.900894E-03                   1_GWF-(1,30,20)
 Under-relaxation          1             -5.900894E-03                   1_GWF-(1,30,20)
 Linear Solver             2         2   -3.450773E-04                   1_GWF-(1,30,29)
 Under-relaxation          2             -3.450773E-04                   1_GWF-(1,30,29)
 Linear Solver             3         1    3.684806E-05                   1_GWF-(1,30,28)

 3 CALLS TO NUMERICAL SOLUTION IN TIME STEP 5 STRESS PERIOD 3
 7 TOTAL ITERATIONS


 OUTER ITERATION SUMMARY
 ---------------------------------------------------------------------------------------
                       OUTER     INNER         MAXIMUM                    MAXIMUM CHANGE
                   ITERATION ITERATION          CHANGE                    MODEL-(CELLID)
 ---------------------------------------------------------------------------------------
 Linear Solver             1         4   -5.663278E-03                   1_GWF-(1,30,19)
 Under-relaxation          1             -5.663278E-03                   1_GWF-(1,30,19)
 Linear Solver             2         2   -3.157243E-04                   1_GWF-(1,30,29)
 Under-relaxation          2             -3.157243E-04                   1_GWF-(1,30,29)
 Linear Solver             3         1    3.328868E-05                   1_GWF-(1,30,28)

 3 CALLS TO NUMERICAL SOLUTION IN TIME STEP 6 STRESS PERIOD 3
 7 TOTAL ITERATIONS


 OUTER ITERATION SUMMARY
 ---------------------------------------------------------------------------------------
                       OUTER     INNER         MAXIMUM                    MAXIMUM CHANGE
                   ITERATION ITERATION          CHANGE                    MODEL-(CELLID)
 ---------------------------------------------------------------------------------------
 Linear Solver             1         4   -5.470671E-03                   1_GWF-(1,30,18)
 Under-relaxation          1             -5.470671E-03                   1_GWF-(1,30,18)
 Linear Solver             2         2   -2.917998E-04                   1_GWF-(1,30,29)
 Under-relaxation          2             -2.917998E-04                   1_GWF-(1,30,29)
 Linear Solver             3         1    3.046904E-05                   1_GWF-(1,30,28)

 3 CALLS TO NUMERICAL SOLUTION IN TIME STEP 7 STRESS PERIOD 3
 7 TOTAL ITERATIONS


 OUTER ITERATION SUMMARY
 ---------------------------------------------------------------------------------------
                       OUTER     INNER         MAXIMUM                    MAXIMUM CHANGE
                   ITERATION ITERATION          CHANGE                    MODEL-(CELLID)
 ---------------------------------------------------------------------------------------
 Linear Solver             1         4   -5.312317E-03                   1_GWF-(1,30,17)
 Under-relaxation          1             -5.312317E-03                   1_GWF-(1,30,17)
 Linear Solver             2         2   -2.718713E-04                   1_GWF-(1,30,29)
 Under-relaxation          2             -2.718713E-04                   1_GWF-(1,30,29)
 Linear Solver             3         1    2.817381E-05                   1_GWF-(1,30,28)

 3 CALLS TO NUMERICAL SOLUTION IN TIME STEP 8 STRESS PERIOD 3
 7 TOTAL ITERATIONS


 OUTER ITERATION SUMMARY
 ---------------------------------------------------------------------------------------
                       OUTER     INNER         MAXIMUM                    MAXIMUM CHANGE
                   ITERATION ITERATION          CHANGE                    MODEL-(CELLID)
 ---------------------------------------------------------------------------------------
 Linear Solver             1         4   -5.185408E-03                   1_GWF-(1,30,15)
 Under-relaxation          1             -5.185408E-03                   1_GWF-(1,30,15)
 Linear Solver             2         2   -2.549777E-04                   1_GWF-(1,30,29)
 Under-relaxation          2             -2.549777E-04                   1_GWF-(1,30,29)
 Linear Solver             3         1    2.626398E-05                   1_GWF-(1,30,28)

 3 CALLS TO NUMERICAL SOLUTION IN TIME STEP 9 STRESS PERIOD 3
 7 TOTAL ITERATIONS


 OUTER ITERATION SUMMARY
 ---------------------------------------------------------------------------------------
                       OUTER     INNER         MAXIMUM                    MAXIMUM CHANGE
                   ITERATION ITERATION          CHANGE                    MODEL-(CELLID)
 ---------------------------------------------------------------------------------------
 Linear Solver             1         4   -5.079787E-03                   1_GWF-(1,30,13)
 Under-relaxation          1             -5.079787E-03                   1_GWF-(1,30,13)
 Linear Solver             2         2   -2.404485E-04                   1_GWF-(1,30,29)
 Under-relaxation          2             -2.404485E-04                   1_GWF-(1,30,29)
 Linear Solver             3         1    2.464604E-05                   1_GWF-(1,30,28)

 3 CALLS TO NUMERICAL SOLUTION IN TIME STEP 10 STRESS PERIOD 3
 7 TOTAL ITERATIONS
1
                            STRESS PERIOD NO.    4, LENGTH =   30.00000    
                            -----------------------------------------------

                              NUMBER OF TIME STEPS =    10

                               MULTIPLIER FOR DELT =     1.000

                            INITIAL TIME STEP SIZE =   3.000000    


 OUTER ITERATION SUMMARY
 ---------------------------------------------------------------------------------------
                       OUTER     INNER         MAXIMUM                    MAXIMUM CHANGE
                   ITERATION ITERATION          CHANGE                    MODEL-(CELLID)
 ---------------------------------------------------------------------------------------
 Linear Solver             1         5    9.617633E-02                   1_GWF-(1,29,29)
 Under-relaxation          1              9.617633E-02                   1_GWF-(1,29,29)
 Linear Solver             2         4   -7.079008E-03                   1_GWF-(1,29,28)
 Under-relaxation          2             -7.079008E-03                   1_GWF-(1,29,28)
 Linear Solver             3         3   -4.443273E-04                    1_GWF-(1,1,29)
 Under-relaxation          3             -4.443273E-04                    1_GWF-(1,1,29)
 Linear Solver             4         1    5.357507E-05                    1_GWF-(1,2,27)

 4 CALLS TO NUMERICAL SOLUTION IN TIME STEP 1 STRESS PERIOD 4
 13 TOTAL ITERATIONS


 OUTER ITERATION SUMMARY
 ---------------------------------------------------------------------------------------
                       OUTER     INNER         MAXIMUM                    MAXIMUM CHANGE
                   ITERATION ITERATION          CHANGE                    MODEL-(CELLID)
 ---------------------------------------------------------------------------------------
 Linear Solver             1         5    2.722124E-02                    1_GWF-(1,1,29)
 Under-relaxation          1              2.722124E-02                    1_GWF-(1,1,29)
 Linear Solver             2         3   -2.212428E-03                    1_GWF-(1,3,27)
 Under-relaxation          2             -2.212428E-03                    1_GWF-(1,3,27)
 Linear Solver             3         2   -1.598972E-04                   1_GWF-(1,26,28)
 Under-relaxation          3             -1.598972E-04                   1_GWF-(1,26,28)
 Linear Solver             4         1    1.953902E-05                    1_GWF-(1,4,27)

 4 CALLS TO NUMERICAL SOLUTION IN TIME STEP 2 STRESS PERIOD 4
 11 TOTAL ITERATIONS


 OUTER ITERATION SUMMARY
 ---------------------------------------------------------------------------------------
                       OUTER     INNER         MAXIMUM                    MAXIMUM CHANGE
                   ITERATION ITERATION          CHANGE                    MODEL-(CELLID)
 ---------------------------------------------------------------------------------------
 Linear Solver             1         4   -1.698549E-02                    1_GWF-(1,26,2)
 Under-relaxation          1             -1.698549E-02                    1_GWF-(1,26,2)
 Linear Solver             2         3   -9.550478E-04                    1_GWF-(1,1,26)
 Under-relaxation          2             -9.550478E-04                    1_GWF-(1,1,26)
 Linear Solver             3         1   -7.858331E-05                    1_GWF-(1,2,28)

 3 CALLS TO NUMERICAL SOLUTION IN TIME STEP 3 STRESS PERIOD 4
 8 TOTAL ITERATIONS


 OUTER ITERATION SUMMARY
 ---------------------------------------------------------------------------------------
                       OUTER     INNER         MAXIMUM                    MAXIMUM CHANGE
                   ITERATION ITERATION          CHANGE                    MODEL-(CELLID)
 ---------------------------------------------------------------------------------------
 Linear Solver             1         4   -1.682425E-02                     1_GWF-(1,1,1)
 Under-relaxation          1             -1.682425E-02                     1_GWF-(1,1,1)
 Linear Solver             2         3   -5.297800E-04                    1_GWF-(1,1,26)
 Under-relaxation          2             -5.297800E-04                    1_GWF-(1,1,26)
 Linear Solver             3         1   -3.531402E-05                    1_GWF-(1,2,28)

 3 CALLS TO NUMERICAL SOLUTION IN TIME STEP 4 STRESS PERIOD 4
 8 TOTAL ITERATIONS


 OUTER ITERATION SUMMARY
 ---------------------------------------------------------------------------------------
                       OUTER     INNER         MAXIMUM                    MAXIMUM CHANGE
                   ITERATION ITERATION          CHANGE                    MODEL-(CELLID)
 ---------------------------------------------------------------------------------------
 Linear Solver             1         4   -1.664786E-02                    1_GWF-(1,24,1)
 Under-relaxation          1             -1.664786E-02                    1_GWF-(1,24,1)
 Linear Solver             2         2   -3.332594E-04                   1_GWF-(1,30,26)
 Under-relaxation          2             -3.332594E-04                   1_GWF-(1,30,26)
 Linear Solver             3         1    1.733839E-05                   1_GWF-(1,30,25)

 3 CALLS TO NUMERICAL SOLUTION IN TIME STEP 5 STRESS PERIOD 4
 7 TOTAL ITERATIONS


 OUTER ITERATION SUMMARY
 ---------------------------------------------------------------------------------------
                       OUTER     INNER         MAXIMUM                    MAXIMUM CHANGE
                   ITERATION ITERATION          CHANGE                    MODEL-(CELLID)
 ---------------------------------------------------------------------------------------
 Linear Solver             1         4   -1.645912E-02                    1_GWF-(1,24,1)
 Under-relaxation          1             -1.645912E-02                    1_GWF-(1,24,1)
 Linear Solver             2         2   -2.528447E-04                   1_GWF-(1,30,27)
 Under-relaxation          2             -2.528447E-04                   1_GWF-(1,30,27)
 Linear Solver             3         1    1.464448E-05                   1_GWF-(1,30,25)

 3 CALLS TO NUMERICAL SOLUTION IN TIME STEP 6 STRESS PERIOD 4
 7 TOTAL ITERATIONS


 OUTER ITERATION SUMMARY
 ---------------------------------------------------------------------------------------
                       OUTER     INNER         MAXIMUM                    MAXIMUM CHANGE
                   ITERATION ITERATION          CHANGE                    MODEL-(CELLID)
 ---------------------------------------------------------------------------------------
 Linear Solver             1         4   -1.625235E-02                    1_GWF-(1,25,1)
 Under-relaxation          1             -1.625235E-02                    1_GWF-(1,25,1)
 Linear Solver             2         2   -2.422904E-04                   1_GWF-(1,30,28)
 Under-relaxation          2             -2.422904E-04                   1_GWF-(1,30,28)
 Linear Solver             3         1    1.695535E-05                   1_GWF-(1,30,27)

 3 CALLS TO NUMERICAL SOLUTION IN TIME STEP 7 STRESS PERIOD 4
 7 TOTAL ITERATIONS


 OUTER ITERATION SUMMARY
 ---------------------------------------------------------------------------------------
                       OUTER     INNER         MAXIMUM                    MAXIMUM CHANGE
                   ITERATION ITERATION          CHANGE                    MODEL-(CELLID)
 ---------------------------------------------------------------------------------------
 Linear Solver             1         4   -1.603124E-02                    1_GWF-(1,25,1)
 Under-relaxation          1             -1.603124E-02                    1_GWF-(1,25,1)
 Linear Solver             2         2   -2.509437E-04                   1_GWF-(1,30,29)
 Under-relaxation          2             -2.509437E-04                   1_GWF-(1,30,29)
 Linear Solver             3         1    2.024923E-05                   1_GWF-(1,30,27)

 3 CALLS TO NUMERICAL SOLUTION IN TIME STEP 8 STRESS PERIOD 4
 7 TOTAL ITERATIONS


 OUTER ITERATION SUMMARY
 ---------------------------------------------------------------------------------------
                       OUTER     INNER         MAXIMUM                    MAXIMUM CHANGE
                   ITERATION ITERATION          CHANGE                    MODEL-(CELLID)
 ---------------------------------------------------------------------------------------
 Linear Solver             1         4   -1.579872E-02                    1_GWF-(1,25,1)
 Under-relaxation          1             -1.579872E-02                    1_GWF-(1,25,1)
 Linear Solver             2         2   -2.666111E-04                   1_GWF-(1,30,29)
 Under-relaxation          2             -2.666111E-04                   1_GWF-(1,30,29)
 Linear Solver             3         1    2.213417E-05                   1_GWF-(1,30,27)

 3 CALLS TO NUMERICAL SOLUTION IN TIME STEP 9 STRESS PERIOD 4
 7 TOTAL ITERATIONS


 OUTER ITERATION SUMMARY
 ---------------------------------------------------------------------------------------
                       OUTER     INNER         MAXIMUM                    MAXIMUM CHANGE
                   ITERATION ITERATION          CHANGE                    MODEL-(CELLID)
 ---------------------------------------------------------------------------------------
 Linear Solver             1         4   -1.555776E-02                    1_GWF-(1,25,1)
 Under-relaxation          1             -1.555776E-02                    1_GWF-(1,25,1)
 Linear Solver             2         2   -2.753174E-04                   1_GWF-(1,30,29)
 Under-relaxation          2             -2.753174E-04                   1_GWF-(1,30,29)
 Linear Solver             3         1    2.318930E-05                   1_GWF-(1,30,27)

 3 CALLS TO NUMERICAL SOLUTION IN TIME STEP 10 STRESS PERIOD 4
 7 TOTAL ITERATIONS
1
                            STRESS PERIOD NO.    5, LENGTH =   30.00000    
                            -----------------------------------------------

                              NUMBER OF TIME STEPS =    10

                               MULTIPLIER FOR DELT =     1.000

                            INITIAL TIME STEP SIZE =   3.000000    


 OUTER ITERATION SUMMARY
 ---------------------------------------------------------------------------------------
                       OUTER     INNER         MAXIMUM                    MAXIMUM CHANGE
                   ITERATION ITERATION          CHANGE                    MODEL-(CELLID)
 ---------------------------------------------------------------------------------------
 Linear Solver             1         6    0.269886                        1_GWF-(1,1,29)
 Under-relaxation          1              0.269886                        1_GWF-(1,1,29)
 Linear Solver             2         4   -9.505605E-03                    1_GWF-(1,2,27)
 Under-relaxation          2             -9.505605E-03                    1_GWF-(1,2,27)
 Linear Solver             3         3   -5.374347E-04                    1_GWF-(1,1,28)
 Under-relaxation          3             -5.374347E-04                    1_GWF-(1,1,28)
 Linear Solver             4         1    3.898650E-05                    1_GWF-(1,2,27)

 4 CALLS TO NUMERICAL SOLUTION IN TIME STEP 1 STRESS PERIOD 5
 14 TOTAL ITERATIONS


 OUTER ITERATION SUMMARY
 ---------------------------------------------------------------------------------------
                       OUTER     INNER         MAXIMUM                    MAXIMUM CHANGE
                   ITERATION ITERATION          CHANGE                    MODEL-(CELLID)
 ---------------------------------------------------------------------------------------
 Linear Solver             1         5    7.462357E-02                    1_GWF-(1,1,29)
 Under-relaxation          1              7.462357E-02                    1_GWF-(1,1,29)
 Linear Solver             2         4   -3.192532E-03                    1_GWF-(1,3,26)
 Under-relaxation          2             -3.192532E-03                    1_GWF-(1,3,26)
 Linear Solver             3         2   -1.996038E-04                    1_GWF-(1,1,28)
 Under-relaxation          3             -1.996038E-04                    1_GWF-(1,1,28)
 Linear Solver             4         1    1.352637E-05                    1_GWF-(1,4,26)

 4 CALLS TO NUMERICAL SOLUTION IN TIME STEP 2 STRESS PERIOD 5
 12 TOTAL ITERATIONS


 OUTER ITERATION SUMMARY
 ---------------------------------------------------------------------------------------
                       OUTER     INNER         MAXIMUM                    MAXIMUM CHANGE
                   ITERATION ITERATION          CHANGE                    MODEL-(CELLID)
 ---------------------------------------------------------------------------------------
 Linear Solver             1         5    3.671263E-02                    1_GWF-(1,1,28)
 Under-relaxation          1              3.671263E-02                    1_GWF-(1,1,28)
 Linear Solver             2         3   -1.541018E-03                    1_GWF-(1,3,25)
 Under-relaxation          2             -1.541018E-03                    1_GWF-(1,3,25)
 Linear Solver             3         2   -1.047278E-04                   1_GWF-(1,30,28)
 Under-relaxation          3             -1.047278E-04                   1_GWF-(1,30,28)
 Linear Solver             4         1    6.842887E-06                    1_GWF-(1,2,24)

 4 CALLS TO NUMERICAL SOLUTION IN TIME STEP 3 STRESS PERIOD 5
 11 TOTAL ITERATIONS


 OUTER ITERATION SUMMARY
 ---------------------------------------------------------------------------------------
                       OUTER     INNER         MAXIMUM                    MAXIMUM CHANGE
                   ITERATION ITERATION          CHANGE                    MODEL-(CELLID)
 ---------------------------------------------------------------------------------------
 Linear Solver             1         5    2.062557E-02                    1_GWF-(1,1,27)
 Under-relaxation          1              2.062557E-02                    1_GWF-(1,1,27)
 Linear Solver             2         3   -8.935771E-04                    1_GWF-(1,2,24)
 Under-relaxation          2             -8.935771E-04                    1_GWF-(1,2,24)
 Linear Solver             3         1   -6.037069E-05                    1_GWF-(1,2,27)

 3 CALLS TO NUMERICAL SOLUTION IN TIME STEP 4 STRESS PERIOD 5
 9 TOTAL ITERATIONS


 OUTER ITERATION SUMMARY
 ---------------------------------------------------------------------------------------
                       OUTER     INNER         MAXIMUM                    MAXIMUM CHANGE
                   ITERATION ITERATION          CHANGE                    MODEL-(CELLID)
 ---------------------------------------------------------------------------------------
 Linear Solver             1         5   -2.014560E-02                    1_GWF-(1,30,1)
 Under-relaxation          1             -2.014560E-02                    1_GWF-(1,30,1)
 Linear Solver             2         3   -5.807381E-04                    1_GWF-(1,3,24)
 Under-relaxation          2             -5.807381E-04                    1_GWF-(1,3,24)
 Linear Solver             3         1   -3.840609E-05                    1_GWF-(1,2,27)

 3 CALLS TO NUMERICAL SOLUTION IN TIME STEP 5 STRESS PERIOD 5
 9 TOTAL ITERATIONS


 OUTER ITERATION SUMMARY
 ---------------------------------------------------------------------------------------
                       OUTER     INNER         MAXIMUM                    MAXIMUM CHANGE
                   ITERATION ITERATION          CHANGE                    MODEL-(CELLID)
 ---------------------------------------------------------------------------------------
 Linear Solver             1         4   -1.976023E-02                    1_GWF-(1,24,1)
 Under-relaxation          1             -1.976023E-02                    1_GWF-(1,24,1)
 Linear Solver             2         3   -4.088415E-04                   1_GWF-(1,29,23)
 Under-relaxation          2             -4.088415E-04                   1_GWF-(1,29,23)
 Linear Solver             3         1   -2.409124E-05                    1_GWF-(1,2,27)

 3 CALLS TO NUMERICAL SOLUTION IN TIME STEP 6 STRESS PERIOD 5
 8 TOTAL ITERATIONS


 OUTER ITERATION SUMMARY
 ---------------------------------------------------------------------------------------
                       OUTER     INNER         MAXIMUM                    MAXIMUM CHANGE
                   ITERATION ITERATION          CHANGE                    MODEL-(CELLID)
 ---------------------------------------------------------------------------------------
 Linear Solver             1         4   -1.934714E-02                    1_GWF-(1,25,1)
 Under-relaxation          1             -1.934714E-02                    1_GWF-(1,25,1)
 Linear Solver             2         2   -3.013396E-04                   1_GWF-(1,30,23)
 Under-relaxation          2             -3.013396E-04                   1_GWF-(1,30,23)
 Linear Solver             3         1   -1.870823E-05                    1_GWF-(1,4,27)

 3 CALLS TO NUMERICAL SOLUTION IN TIME STEP 7 STRESS PERIOD 5
 7 TOTAL ITERATIONS


 OUTER ITERATION SUMMARY
 ---------------------------------------------------------------------------------------
                       OUTER     INNER         MAXIMUM                    MAXIMUM CHANGE
                   ITERATION ITERATION          CHANGE                    MODEL-(CELLID)
 ---------------------------------------------------------------------------------------
 Linear Solver             1         4   -1.891737E-02                    1_GWF-(1,24,1)
 Under-relaxation          1             -1.891737E-02                    1_GWF-(1,24,1)
 Linear Solver             2         2   -2.259636E-04                   1_GWF-(1,30,23)
 Under-relaxation          2             -2.259636E-04                   1_GWF-(1,30,23)
 Linear Solver             3         1   -1.170521E-05                    1_GWF-(1,4,27)

 3 CALLS TO NUMERICAL SOLUTION IN TIME STEP 8 STRESS PERIOD 5
 7 TOTAL ITERATIONS


 OUTER ITERATION SUMMARY
 ---------------------------------------------------------------------------------------
                       OUTER     INNER         MAXIMUM                    MAXIMUM CHANGE
                   ITERATION ITERATION          CHANGE                    MODEL-(CELLID)
 ---------------------------------------------------------------------------------------
 Linear Solver             1         4   -1.847298E-02                    1_GWF-(1,25,1)
 Under-relaxation          1             -1.847298E-02                    1_GWF-(1,25,1)
 Linear Solver             2         2   -1.741757E-04                   1_GWF-(1,30,23)
 Under-relaxation          2             -1.741757E-04                   1_GWF-(1,30,23)
 Linear Solver             3         1   -6.848235E-06                    1_GWF-(1,4,27)

 3 CALLS TO NUMERICAL SOLUTION IN TIME STEP 9 STRESS PERIOD 5
 7 TOTAL ITERATIONS


 OUTER ITERATION SUMMARY
 ---------------------------------------------------------------------------------------
                       OUTER     INNER         MAXIMUM                    MAXIMUM CHANGE
                   ITERATION ITERATION          CHANGE                    MODEL-(CELLID)
 ---------------------------------------------------------------------------------------
 Linear Solver             1         4   -1.802203E-02                    1_GWF-(1,25,1)
 Under-relaxation          1             -1.802203E-02                    1_GWF-(1,25,1)
 Linear Solver             2         2    1.492792E-04                     1_GWF-(1,2,1)
 Under-relaxation          2              1.492792E-04                     1_GWF-(1,2,1)
 Linear Solver             3         1    4.869635E-06                    1_GWF-(1,2,16)

 3 CALLS TO NUMERICAL SOLUTION IN TIME STEP 10 STRESS PERIOD 5
 7 TOTAL ITERATIONS
1
                            STRESS PERIOD NO.    6, LENGTH =   30.00000    
                            -----------------------------------------------

                              NUMBER OF TIME STEPS =    10

                               MULTIPLIER FOR DELT =     1.000

                            INITIAL TIME STEP SIZE =   3.000000    


 OUTER ITERATION SUMMARY
 ---------------------------------------------------------------------------------------
                       OUTER     INNER         MAXIMUM                    MAXIMUM CHANGE
                   ITERATION ITERATION          CHANGE                    MODEL-(CELLID)
 ---------------------------------------------------------------------------------------
 Linear Solver             1         6    0.443666                        1_GWF-(1,1,29)
 Under-relaxation          1              0.443666                        1_GWF-(1,1,29)
 Linear Solver             2         4    7.900497E-03                   1_GWF-(1,30,29)
 Under-relaxation          2              7.900497E-03                   1_GWF-(1,30,29)
 Linear Solver             3         2   -1.555273E-04                   1_GWF-(1,30,27)
 Under-relaxation          3             -1.555273E-04                   1_GWF-(1,30,27)
 Linear Solver             4         1    6.685403E-06                    1_GWF-(1,3,23)

 4 CALLS TO NUMERICAL SOLUTION IN TIME STEP 1 STRESS PERIOD 6
 13 TOTAL ITERATIONS


 OUTER ITERATION SUMMARY
 ---------------------------------------------------------------------------------------
                       OUTER     INNER         MAXIMUM                    MAXIMUM CHANGE
                   ITERATION ITERATION          CHANGE                    MODEL-(CELLID)
 ---------------------------------------------------------------------------------------
 Linear Solver             1         6    0.125224                       1_GWF-(1,27,28)
 Under-relaxation          1              0.125224                       1_GWF-(1,27,28)
 Linear Solver             2         3   -1.981817E-03                    1_GWF-(1,2,24)
 Under-relaxation          2             -1.981817E-03                    1_GWF-(1,2,24)
 Linear Solver             3         1   -7.870199E-05                   1_GWF-(1,30,27)

 3 CALLS TO NUMERICAL SOLUTION IN TIME STEP 2 STRESS PERIOD 6
 10 TOTAL ITERATIONS


 OUTER ITERATION SUMMARY
 ---------------------------------------------------------------------------------------
                       OUTER     INNER         MAXIMUM                    MAXIMUM CHANGE
                   ITERATION ITERATION          CHANGE                    MODEL-(CELLID)
 ---------------------------------------------------------------------------------------
 Linear Solver             1         5    6.566189E-02                    1_GWF-(1,4,27)
 Under-relaxation          1              6.566189E-02                    1_GWF-(1,4,27)
 Linear Solver             2         3   -1.195327E-03                   1_GWF-(1,29,23)
 Under-relaxation          2             -1.195327E-03                   1_GWF-(1,29,23)
 Linear Solver             3         1   -4.653882E-05                   1_GWF-(1,30,27)

 3 CALLS TO NUMERICAL SOLUTION IN TIME STEP 3 STRESS PERIOD 6
 9 TOTAL ITERATIONS


 OUTER ITERATION SUMMARY
 ---------------------------------------------------------------------------------------
                       OUTER     INNER         MAXIMUM                    MAXIMUM CHANGE
                   ITERATION ITERATION          CHANGE                    MODEL-(CELLID)
 ---------------------------------------------------------------------------------------
 Linear Solver             1         5    4.115521E-02                   1_GWF-(1,27,27)
 Under-relaxation          1              4.115521E-02                   1_GWF-(1,27,27)
 Linear Solver             2         3   -7.906071E-04                   1_GWF-(1,29,22)
 Under-relaxation          2             -7.906071E-04                   1_GWF-(1,29,22)
 Linear Solver             3         1   -3.112406E-05                    1_GWF-(1,2,26)

 3 CALLS TO NUMERICAL SOLUTION IN TIME STEP 4 STRESS PERIOD 6
 9 TOTAL ITERATIONS


 OUTER ITERATION SUMMARY
 ---------------------------------------------------------------------------------------
                       OUTER     INNER         MAXIMUM                    MAXIMUM CHANGE
                   ITERATION ITERATION          CHANGE                    MODEL-(CELLID)
 ---------------------------------------------------------------------------------------
 Linear Solver             1         5    2.876111E-02                    1_GWF-(1,3,26)
 Under-relaxation          1              2.876111E-02                    1_GWF-(1,3,26)
 Linear Solver             2         3   -5.562139E-04                   1_GWF-(1,29,22)
 Under-relaxation          2             -5.562139E-04                   1_GWF-(1,29,22)
 Linear Solver             3         1   -2.181141E-05                    1_GWF-(1,2,26)

 3 CALLS TO NUMERICAL SOLUTION IN TIME STEP 5 STRESS PERIOD 6
 9 TOTAL ITERATIONS


 OUTER ITERATION SUMMARY
 ---------------------------------------------------------------------------------------
                       OUTER     INNER         MAXIMUM                    MAXIMUM CHANGE
                   ITERATION ITERATION          CHANGE                    MODEL-(CELLID)
 ---------------------------------------------------------------------------------------
 Linear Solver             1         5   -2.096805E-02                    1_GWF-(1,30,1)
 Under-relaxation          1             -2.096805E-02                    1_GWF-(1,30,1)
 Linear Solver             2         3   -4.157588E-04                   1_GWF-(1,29,21)
 Under-relaxation          2             -4.157588E-04                   1_GWF-(1,29,21)
 Linear Solver             3         1   -1.570087E-05                    1_GWF-(1,2,26)

 3 CALLS TO NUMERICAL SOLUTION IN TIME STEP 6 STRESS PERIOD 6
 9 TOTAL ITERATIONS


 OUTER ITERATION SUMMARY
 ---------------------------------------------------------------------------------------
                       OUTER     INNER         MAXIMUM                    MAXIMUM CHANGE
                   ITERATION ITERATION          CHANGE                    MODEL-(CELLID)
 ---------------------------------------------------------------------------------------
 Linear Solver             1         4   -2.031540E-02                    1_GWF-(1,24,1)
 Under-relaxation          1             -2.031540E-02                    1_GWF-(1,24,1)
 Linear Solver             2         2   -3.287317E-04                   1_GWF-(1,30,21)
 Under-relaxation          2             -3.287317E-04                   1_GWF-(1,30,21)
 Linear Solver             3         1   -1.630563E-05                   1_GWF-(1,30,27)

 3 CALLS TO NUMERICAL SOLUTION IN TIME STEP 7 STRESS PERIOD 6
 7 TOTAL ITERATIONS


 OUTER ITERATION SUMMARY
 ---------------------------------------------------------------------------------------
                       OUTER     INNER         MAXIMUM                    MAXIMUM CHANGE
                   ITERATION ITERATION          CHANGE                    MODEL-(CELLID)
 ---------------------------------------------------------------------------------------
 Linear Solver             1         4   -1.963270E-02                    1_GWF-(1,24,1)
 Under-relaxation          1             -1.963270E-02                    1_GWF-(1,24,1)
 Linear Solver             2         2   -2.581667E-04                   1_GWF-(1,30,20)
 Under-relaxation          2             -2.581667E-04                   1_GWF-(1,30,20)
 Linear Solver             3         1   -1.214724E-05                   1_GWF-(1,30,27)

 3 CALLS TO NUMERICAL SOLUTION IN TIME STEP 8 STRESS PERIOD 6
 7 TOTAL ITERATIONS


 OUTER ITERATION SUMMARY
 ---------------------------------------------------------------------------------------
                       OUTER     INNER         MAXIMUM                    MAXIMUM CHANGE
                   ITERATION ITERATION          CHANGE                    MODEL-(CELLID)
 ---------------------------------------------------------------------------------------
 Linear Solver             1         4   -1.893175E-02                    1_GWF-(1,24,1)
 Under-relaxation          1             -1.893175E-02                    1_GWF-(1,24,1)
 Linear Solver             2         2   -2.061327E-04                   1_GWF-(1,30,20)
 Under-relaxation          2             -2.061327E-04                   1_GWF-(1,30,20)
 Linear Solver             3         1   -9.988268E-06                    1_GWF-(1,30,1)

 3 CALLS TO NUMERICAL SOLUTION IN TIME STEP 9 STRESS PERIOD 6
 7 TOTAL ITERATIONS


 OUTER ITERATION SUMMARY
 ---------------------------------------------------------------------------------------
                       OUTER     INNER         MAXIMUM                    MAXIMUM CHANGE
                   ITERATION ITERATION          CHANGE                    MODEL-(CELLID)
 ---------------------------------------------------------------------------------------
 Linear Solver             1         4   -1.822580E-02                    1_GWF-(1,24,1)
 Under-relaxation          1             -1.822580E-02                    1_GWF-(1,24,1)
 Linear Solver             2         2   -1.663666E-04                   1_GWF-(1,30,20)
 Under-relaxation          2             -1.663666E-04                   1_GWF-(1,30,20)
 Linear Solver             3         1   -8.406701E-06                    1_GWF-(1,30,1)

 3 CALLS TO NUMERICAL SOLUTION IN TIME STEP 10 STRESS PERIOD 6
 7 TOTAL ITERATIONS
1
                            STRESS PERIOD NO.    7, LENGTH =   30.00000    
                            -----------------------------------------------

                              NUMBER OF TIME STEPS =    10

                               MULTIPLIER FOR DELT =     1.000

                            INITIAL TIME STEP SIZE =   3.000000    


 OUTER ITERATION SUMMARY
 ---------------------------------------------------------------------------------------
                       OUTER     INNER         MAXIMUM                    MAXIMUM CHANGE
                   ITERATION ITERATION          CHANGE                    MODEL-(CELLID)
 ---------------------------------------------------------------------------------------
 Linear Solver             1         6    0.447290                        1_GWF-(1,1,29)
 Under-relaxation          1              0.447290                        1_GWF-(1,1,29)
 Linear Solver             2         4    7.541240E-03                   1_GWF-(1,30,28)
 Under-relaxation          2              7.541240E-03                   1_GWF-(1,30,28)
 Linear Solver             3         2    1.159272E-04                   1_GWF-(1,11,28)
 Under-relaxation          3              1.159272E-04                   1_GWF-(1,11,28)
 Linear Solver             4         1    3.822545E-06                    1_GWF-(1,2,28)

 4 CALLS TO NUMERICAL SOLUTION IN TIME STEP 1 STRESS PERIOD 7
 13 TOTAL ITERATIONS


 OUTER ITERATION SUMMARY
 ---------------------------------------------------------------------------------------
                       OUTER     INNER         MAXIMUM                    MAXIMUM CHANGE
                   ITERATION ITERATION          CHANGE                    MODEL-(CELLID)
 ---------------------------------------------------------------------------------------
 Linear Solver             1         6    0.127278                       1_GWF-(1,27,28)
 Under-relaxation          1              0.127278                       1_GWF-(1,27,28)
 Linear Solver             2         3    1.129647E-03                    1_GWF-(1,4,28)
 Under-relaxation          2              1.129647E-03                    1_GWF-(1,4,28)
 Linear Solver             3         1   -1.906629E-05                    1_GWF-(1,2,25)

 3 CALLS TO NUMERICAL SOLUTION IN TIME STEP 2 STRESS PERIOD 7
 10 TOTAL ITERATIONS


 OUTER ITERATION SUMMARY
 ---------------------------------------------------------------------------------------
                       OUTER     INNER         MAXIMUM                    MAXIMUM CHANGE
                   ITERATION ITERATION          CHANGE                    MODEL-(CELLID)
 ---------------------------------------------------------------------------------------
 Linear Solver             1         5    7.077708E-02                    1_GWF-(1,4,27)
 Under-relaxation          1              7.077708E-02                    1_GWF-(1,4,27)
 Linear Solver             2         3   -5.183580E-04                   1_GWF-(1,30,21)
 Under-relaxation          2             -5.183580E-04                   1_GWF-(1,30,21)
 Linear Solver             3         1   -1.272765E-05                   1_GWF-(1,30,25)

 3 CALLS TO NUMERICAL SOLUTION IN TIME STEP 3 STRESS PERIOD 7
 9 TOTAL ITERATIONS


 OUTER ITERATION SUMMARY
 ---------------------------------------------------------------------------------------
                       OUTER     INNER         MAXIMUM                    MAXIMUM CHANGE
                   ITERATION ITERATION          CHANGE                    MODEL-(CELLID)
 ---------------------------------------------------------------------------------------
 Linear Solver             1         5    4.787931E-02                    1_GWF-(1,3,26)
 Under-relaxation          1              4.787931E-02                    1_GWF-(1,3,26)
 Linear Solver             2         3   -3.915734E-04                   1_GWF-(1,29,20)
 Under-relaxation          2             -3.915734E-04                   1_GWF-(1,29,20)
 Linear Solver             3         1   -8.609105E-06                   1_GWF-(1,30,24)

 3 CALLS TO NUMERICAL SOLUTION IN TIME STEP 4 STRESS PERIOD 7
 9 TOTAL ITERATIONS


 OUTER ITERATION SUMMARY
 ---------------------------------------------------------------------------------------
                       OUTER     INNER         MAXIMUM                    MAXIMUM CHANGE
                   ITERATION ITERATION          CHANGE                    MODEL-(CELLID)
 ---------------------------------------------------------------------------------------
 Linear Solver             1         5    3.508862E-02                    1_GWF-(1,3,25)
 Under-relaxation          1              3.508862E-02                    1_GWF-(1,3,25)
 Linear Solver             2         2   -3.040207E-04                   1_GWF-(1,30,19)
 Under-relaxation          2             -3.040207E-04                   1_GWF-(1,30,19)
 Linear Solver             3         1   -1.322130E-05                    1_GWF-(1,2,21)

 3 CALLS TO NUMERICAL SOLUTION IN TIME STEP 5 STRESS PERIOD 7
 8 TOTAL ITERATIONS


 OUTER ITERATION SUMMARY
 ---------------------------------------------------------------------------------------
                       OUTER     INNER         MAXIMUM                    MAXIMUM CHANGE
                   ITERATION ITERATION          CHANGE                    MODEL-(CELLID)
 ---------------------------------------------------------------------------------------
 Linear Solver             1         5    2.670006E-02                    1_GWF-(1,3,25)
 Under-relaxation          1              2.670006E-02                    1_GWF-(1,3,25)
 Linear Solver             2         2   -2.373064E-04                   1_GWF-(1,30,18)
 Under-relaxation          2             -2.373064E-04                   1_GWF-(1,30,18)
 Linear Solver             3         1   -9.503795E-06                    1_GWF-(1,2,21)

 3 CALLS TO NUMERICAL SOLUTION IN TIME STEP 6 STRESS PERIOD 7
 8 TOTAL ITERATIONS


 OUTER ITERATION SUMMARY
 ---------------------------------------------------------------------------------------
                       OUTER     INNER         MAXIMUM                    MAXIMUM CHANGE
                   ITERATION ITERATION          CHANGE                    MODEL-(CELLID)
 ---------------------------------------------------------------------------------------
 Linear Solver             1         5    2.111723E-02                    1_GWF-(1,3,24)
 Under-relaxation          1              2.111723E-02                    1_GWF-(1,3,24)
 Linear Solver             2         2   -1.912980E-04                   1_GWF-(1,30,18)
 Under-relaxation          2             -1.912980E-04                   1_GWF-(1,30,18)
 Linear Solver             3         1   -7.082433E-06                    1_GWF-(1,2,21)

 3 CALLS TO NUMERICAL SOLUTION IN TIME STEP 7 STRESS PERIOD 7
 8 TOTAL ITERATIONS


 OUTER ITERATION SUMMARY
 ---------------------------------------------------------------------------------------
                       OUTER     INNER         MAXIMUM                    MAXIMUM CHANGE
                   ITERATION ITERATION          CHANGE                    MODEL-(CELLID)
 ---------------------------------------------------------------------------------------
 Linear Solver             1         4    1.686905E-02                   1_GWF-(1,29,24)
 Under-relaxation          1              1.686905E-02                   1_GWF-(1,29,24)
 Linear Solver             2         2   -1.631871E-04                   1_GWF-(1,29,18)
 Under-relaxation          2             -1.631871E-04                   1_GWF-(1,29,18)
 Linear Solver             3         1   -6.712157E-06                    1_GWF-(1,30,1)

 3 CALLS TO NUMERICAL SOLUTION IN TIME STEP 8 STRESS PERIOD 7
 7 TOTAL ITERATIONS


 OUTER ITERATION SUMMARY
 ---------------------------------------------------------------------------------------
                       OUTER     INNER         MAXIMUM                    MAXIMUM CHANGE
                   ITERATION ITERATION          CHANGE                    MODEL-(CELLID)
 ---------------------------------------------------------------------------------------
 Linear Solver             1         4   -1.521815E-02                    1_GWF-(1,24,1)
 Under-relaxation          1             -1.521815E-02                    1_GWF-(1,24,1)
 Linear Solver             2         2   -1.342657E-04                   1_GWF-(1,29,18)
 Under-relaxation          2             -1.342657E-04                   1_GWF-(1,29,18)
 Linear Solver             3         1   -6.268511E-06                    1_GWF-(1,30,1)

 3 CALLS TO NUMERICAL SOLUTION IN TIME STEP 9 STRESS PERIOD 7
 7 TOTAL ITERATIONS


 OUTER ITERATION SUMMARY
 ---------------------------------------------------------------------------------------
                       OUTER     INNER         MAXIMUM                    MAXIMUM CHANGE
                   ITERATION ITERATION          CHANGE                    MODEL-(CELLID)
 ---------------------------------------------------------------------------------------
 Linear Solver             1         4   -1.434654E-02                    1_GWF-(1,24,1)
 Under-relaxation          1             -1.434654E-02                    1_GWF-(1,24,1)
 Linear Solver             2         2   -1.111546E-04                   1_GWF-(1,29,18)
 Under-relaxation          2             -1.111546E-04                   1_GWF-(1,29,18)
 Linear Solver             3         1   -5.770568E-06                    1_GWF-(1,30,1)

 3 CALLS TO NUMERICAL SOLUTION IN TIME STEP 10 STRESS PERIOD 7
 7 TOTAL ITERATIONS
1
                            STRESS PERIOD NO.    8, LENGTH =   30.00000    
                            -----------------------------------------------

                              NUMBER OF TIME STEPS =    10

                               MULTIPLIER FOR DELT =     1.000

                            INITIAL TIME STEP SIZE =   3.000000    


 OUTER ITERATION SUMMARY
 ---------------------------------------------------------------------------------------
                       OUTER     INNER         MAXIMUM                    MAXIMUM CHANGE
                   ITERATION ITERATION          CHANGE                    MODEL-(CELLID)
 ---------------------------------------------------------------------------------------
 Linear Solver             1         7   -0.496008                        1_GWF-(1,1,29)
 Under-relaxation          1             -0.496008                        1_GWF-(1,1,29)
 Linear Solver             2         5    1.872406E-02                    1_GWF-(1,1,28)
 Under-relaxation          2              1.872406E-02                    1_GWF-(1,1,28)
 Linear Solver             3         3   -5.030976E-04                    1_GWF-(1,3,26)
 Under-relaxation          3             -5.030976E-04                    1_GWF-(1,3,26)
 Linear Solver             4         1   -2.198746E-05                    1_GWF-(1,2,28)

 4 CALLS TO NUMERICAL SOLUTION IN TIME STEP 1 STRESS PERIOD 8
 16 TOTAL ITERATIONS


 OUTER ITERATION SUMMARY
 ---------------------------------------------------------------------------------------
                       OUTER     INNER         MAXIMUM                    MAXIMUM CHANGE
                   ITERATION ITERATION          CHANGE                    MODEL-(CELLID)
 ---------------------------------------------------------------------------------------
 Linear Solver             1         6   -0.139488                       1_GWF-(1,30,28)
 Under-relaxation          1             -0.139488                       1_GWF-(1,30,28)
 Linear Solver             2         4    4.655742E-03                   1_GWF-(1,29,26)
 Under-relaxation          2              4.655742E-03                   1_GWF-(1,29,26)
 Linear Solver             3         2    1.501139E-04                    1_GWF-(1,1,28)
 Under-relaxation          3              1.501139E-04                    1_GWF-(1,1,28)
 Linear Solver             4         1   -1.013116E-05                    1_GWF-(1,5,27)

 4 CALLS TO NUMERICAL SOLUTION IN TIME STEP 2 STRESS PERIOD 8
 13 TOTAL ITERATIONS


 OUTER ITERATION SUMMARY
 ---------------------------------------------------------------------------------------
                       OUTER     INNER         MAXIMUM                    MAXIMUM CHANGE
                   ITERATION ITERATION          CHANGE                    MODEL-(CELLID)
 ---------------------------------------------------------------------------------------
 Linear Solver             1         5   -7.371962E-02                    1_GWF-(1,4,27)
 Under-relaxation          1             -7.371962E-02                    1_GWF-(1,4,27)
 Linear Solver             2         3    1.948787E-03                    1_GWF-(1,3,25)
 Under-relaxation          2              1.948787E-03                    1_GWF-(1,3,25)
 Linear Solver             3         1    8.968033E-05                    1_GWF-(1,2,28)

 3 CALLS TO NUMERICAL SOLUTION IN TIME STEP 3 STRESS PERIOD 8
 9 TOTAL ITERATIONS


 OUTER ITERATION SUMMARY
 ---------------------------------------------------------------------------------------
                       OUTER     INNER         MAXIMUM                    MAXIMUM CHANGE
                   ITERATION ITERATION          CHANGE                    MODEL-(CELLID)
 ---------------------------------------------------------------------------------------
 Linear Solver             1         5   -4.762873E-02                    1_GWF-(1,1,26)
 Under-relaxation          1             -4.762873E-02                    1_GWF-(1,1,26)
 Linear Solver             2         3    1.061703E-03                    1_GWF-(1,2,24)
 Under-relaxation          2              1.061703E-03                    1_GWF-(1,2,24)
 Linear Solver             3         1    5.550866E-05                    1_GWF-(1,2,27)

 3 CALLS TO NUMERICAL SOLUTION IN TIME STEP 4 STRESS PERIOD 8
 9 TOTAL ITERATIONS


 OUTER ITERATION SUMMARY
 ---------------------------------------------------------------------------------------
                       OUTER     INNER         MAXIMUM                    MAXIMUM CHANGE
                   ITERATION ITERATION          CHANGE                    MODEL-(CELLID)
 ---------------------------------------------------------------------------------------
 Linear Solver             1         5   -3.419467E-02                    1_GWF-(1,1,26)
 Under-relaxation          1             -3.419467E-02                    1_GWF-(1,1,26)
 Linear Solver             2         3    6.689631E-04                    1_GWF-(1,2,23)
 Under-relaxation          2              6.689631E-04                    1_GWF-(1,2,23)
 Linear Solver             3         1    3.700642E-05                    1_GWF-(1,2,27)

 3 CALLS TO NUMERICAL SOLUTION IN TIME STEP 5 STRESS PERIOD 8
 9 TOTAL ITERATIONS


 OUTER ITERATION SUMMARY
 ---------------------------------------------------------------------------------------
                       OUTER     INNER         MAXIMUM                    MAXIMUM CHANGE
                   ITERATION ITERATION          CHANGE                    MODEL-(CELLID)
 ---------------------------------------------------------------------------------------
 Linear Solver             1         5   -2.630360E-02                    1_GWF-(1,1,25)
 Under-relaxation          1             -2.630360E-02                    1_GWF-(1,1,25)
 Linear Solver             2         3    4.580657E-04                   1_GWF-(1,29,22)
 Under-relaxation          2              4.580657E-04                   1_GWF-(1,29,22)
 Linear Solver             3         1    2.532677E-05                    1_GWF-(1,2,27)

 3 CALLS TO NUMERICAL SOLUTION IN TIME STEP 6 STRESS PERIOD 8
 9 TOTAL ITERATIONS


 OUTER ITERATION SUMMARY
 ---------------------------------------------------------------------------------------
                       OUTER     INNER         MAXIMUM                    MAXIMUM CHANGE
                   ITERATION ITERATION          CHANGE                    MODEL-(CELLID)
 ---------------------------------------------------------------------------------------
 Linear Solver             1         4   -2.092959E-02                   1_GWF-(1,29,24)
 Under-relaxation          1             -2.092959E-02                   1_GWF-(1,29,24)
 Linear Solver             2         2   -3.446549E-04                   1_GWF-(1,30,28)
 Under-relaxation          2             -3.446549E-04                   1_GWF-(1,30,28)
 Linear Solver             3         1    2.908504E-05                   1_GWF-(1,30,27)

 3 CALLS TO NUMERICAL SOLUTION IN TIME STEP 7 STRESS PERIOD 8
 7 TOTAL ITERATIONS


 OUTER ITERATION SUMMARY
 ---------------------------------------------------------------------------------------
                       OUTER     INNER         MAXIMUM                    MAXIMUM CHANGE
                   ITERATION ITERATION          CHANGE                    MODEL-(CELLID)
 ---------------------------------------------------------------------------------------
 Linear Solver             1         4   -1.739777E-02                   1_GWF-(1,29,24)
 Under-relaxation          1             -1.739777E-02                   1_GWF-(1,29,24)
 Linear Solver             2         2   -2.864110E-04                   1_GWF-(1,30,28)
 Under-relaxation          2             -2.864110E-04                   1_GWF-(1,30,28)
 Linear Solver             3         1    2.244666E-05                   1_GWF-(1,30,27)

 3 CALLS TO NUMERICAL SOLUTION IN TIME STEP 8 STRESS PERIOD 8
 7 TOTAL ITERATIONS


 OUTER ITERATION SUMMARY
 ---------------------------------------------------------------------------------------
                       OUTER     INNER         MAXIMUM                    MAXIMUM CHANGE
                   ITERATION ITERATION          CHANGE                    MODEL-(CELLID)
 ---------------------------------------------------------------------------------------
 Linear Solver             1         4   -1.471635E-02                   1_GWF-(1,29,23)
 Under-relaxation          1             -1.471635E-02                   1_GWF-(1,29,23)
 Linear Solver             2         2   -2.408025E-04                   1_GWF-(1,30,28)
 Under-relaxation          2             -2.408025E-04                   1_GWF-(1,30,28)
 Linear Solver             3         1    1.777831E-05                   1_GWF-(1,30,27)

 3 CALLS TO NUMERICAL SOLUTION IN TIME STEP 9 STRESS PERIOD 8
 7 TOTAL ITERATIONS


 OUTER ITERATION SUMMARY
 ---------------------------------------------------------------------------------------
                       OUTER     INNER         MAXIMUM                    MAXIMUM CHANGE
                   ITERATION ITERATION          CHANGE                    MODEL-(CELLID)
 ---------------------------------------------------------------------------------------
 Linear Solver             1         4   -1.279065E-02                   1_GWF-(1,29,23)
 Under-relaxation          1             -1.279065E-02                   1_GWF-(1,29,23)
 Linear Solver             2         2   -2.051389E-04                   1_GWF-(1,30,28)
 Under-relaxation          2             -2.051389E-04                   1_GWF-(1,30,28)
 Linear Solver             3         1    1.441500E-05                   1_GWF-(1,30,27)

 3 CALLS TO NUMERICAL SOLUTION IN TIME STEP 10 STRESS PERIOD 8
 7 TOTAL ITERATIONS
1
                            STRESS PERIOD NO.    9, LENGTH =   30.00000    
                            -----------------------------------------------

                              NUMBER OF TIME STEPS =    10

                               MULTIPLIER FOR DELT =     1.000

                            INITIAL TIME STEP SIZE =   3.000000    


 OUTER ITERATION SUMMARY
 ---------------------------------------------------------------------------------------
                       OUTER     INNER         MAXIMUM                    MAXIMUM CHANGE
                   ITERATION ITERATION          CHANGE                    MODEL-(CELLID)
 ---------------------------------------------------------------------------------------
 Linear Solver             1         6   -0.292277                        1_GWF-(1,1,29)
 Under-relaxation          1             -0.292277                        1_GWF-(1,1,29)
 Linear Solver             2         4    1.269516E-02                   1_GWF-(1,29,28)
 Under-relaxation          2              1.269516E-02                   1_GWF-(1,29,28)
 Linear Solver             3         3   -3.894282E-04                   1_GWF-(1,30,25)
 Under-relaxation          3             -3.894282E-04                   1_GWF-(1,30,25)
 Linear Solver             4         1   -3.272376E-05                   1_GWF-(1,30,28)

 4 CALLS TO NUMERICAL SOLUTION IN TIME STEP 1 STRESS PERIOD 9
 14 TOTAL ITERATIONS


 OUTER ITERATION SUMMARY
 ---------------------------------------------------------------------------------------
                       OUTER     INNER         MAXIMUM                    MAXIMUM CHANGE
                   ITERATION ITERATION          CHANGE                    MODEL-(CELLID)
 ---------------------------------------------------------------------------------------
 Linear Solver             1         5   -8.789608E-02                   1_GWF-(1,29,28)
 Under-relaxation          1             -8.789608E-02                   1_GWF-(1,29,28)
 Linear Solver             2         4    3.565615E-03                   1_GWF-(1,29,26)
 Under-relaxation          2              3.565615E-03                   1_GWF-(1,29,26)
 Linear Solver             3         2    1.891294E-04                    1_GWF-(1,1,28)
 Under-relaxation          3              1.891294E-04                    1_GWF-(1,1,28)
 Linear Solver             4         1   -1.317293E-05                    1_GWF-(1,5,27)

 4 CALLS TO NUMERICAL SOLUTION IN TIME STEP 2 STRESS PERIOD 9
 12 TOTAL ITERATIONS


 OUTER ITERATION SUMMARY
 ---------------------------------------------------------------------------------------
                       OUTER     INNER         MAXIMUM                    MAXIMUM CHANGE
                   ITERATION ITERATION          CHANGE                    MODEL-(CELLID)
 ---------------------------------------------------------------------------------------
 Linear Solver             1         5   -4.904436E-02                    1_GWF-(1,4,27)
 Under-relaxation          1             -4.904436E-02                    1_GWF-(1,4,27)
 Linear Solver             2         3    1.600643E-03                    1_GWF-(1,2,25)
[...]
 Linear Solver             2         1   -9.064267E-05                    1_GWF-(1,30,1)

 2 CALLS TO NUMERICAL SOLUTION IN TIME STEP 10 STRESS PERIOD 34
 4 TOTAL ITERATIONS
1
                            STRESS PERIOD NO.   35, LENGTH =   30.00000    
                            -----------------------------------------------

                              NUMBER OF TIME STEPS =    10

                               MULTIPLIER FOR DELT =     1.000

                            INITIAL TIME STEP SIZE =   3.000000    


 OUTER ITERATION SUMMARY
 ---------------------------------------------------------------------------------------
                       OUTER     INNER         MAXIMUM                    MAXIMUM CHANGE
                   ITERATION ITERATION          CHANGE                    MODEL-(CELLID)
 ---------------------------------------------------------------------------------------
 Linear Solver             1         4    1.260016E-02                    1_GWF-(1,30,1)
 Under-relaxation          1              1.260016E-02                    1_GWF-(1,30,1)
 Linear Solver             2         2    3.392937E-04                    1_GWF-(1,1,28)
 Under-relaxation          2              3.392937E-04                    1_GWF-(1,1,28)
 Linear Solver             3         1   -1.339516E-05                   1_GWF-(1,30,27)

 3 CALLS TO NUMERICAL SOLUTION IN TIME STEP 1 STRESS PERIOD 35
 7 TOTAL ITERATIONS


 OUTER ITERATION SUMMARY
 ---------------------------------------------------------------------------------------
                       OUTER     INNER         MAXIMUM                    MAXIMUM CHANGE
                   ITERATION ITERATION          CHANGE                    MODEL-(CELLID)
 ---------------------------------------------------------------------------------------
 Linear Solver             1         4    1.231523E-02                     1_GWF-(1,2,1)
 Under-relaxation          1              1.231523E-02                     1_GWF-(1,2,1)
 Linear Solver             2         2    1.511573E-04                   1_GWF-(1,30,27)
 Under-relaxation          2              1.511573E-04                   1_GWF-(1,30,27)
 Linear Solver             3         1   -8.518158E-06                   1_GWF-(1,30,26)

 3 CALLS TO NUMERICAL SOLUTION IN TIME STEP 2 STRESS PERIOD 35
 7 TOTAL ITERATIONS


 OUTER ITERATION SUMMARY
 ---------------------------------------------------------------------------------------
                       OUTER     INNER         MAXIMUM                    MAXIMUM CHANGE
                   ITERATION ITERATION          CHANGE                    MODEL-(CELLID)
 ---------------------------------------------------------------------------------------
 Linear Solver             1         4    1.205713E-02                    1_GWF-(1,25,1)
 Under-relaxation          1              1.205713E-02                    1_GWF-(1,25,1)
 Linear Solver             2         2    1.159259E-04                   1_GWF-(1,30,28)
 Under-relaxation          2              1.159259E-04                   1_GWF-(1,30,28)
 Linear Solver             3         1   -6.907682E-06                   1_GWF-(1,30,26)

 3 CALLS TO NUMERICAL SOLUTION IN TIME STEP 3 STRESS PERIOD 35
 7 TOTAL ITERATIONS


 OUTER ITERATION SUMMARY
 ---------------------------------------------------------------------------------------
                       OUTER     INNER         MAXIMUM                    MAXIMUM CHANGE
                   ITERATION ITERATION          CHANGE                    MODEL-(CELLID)
 ---------------------------------------------------------------------------------------
 Linear Solver             1         4    1.181108E-02                    1_GWF-(1,25,1)
 Under-relaxation          1              1.181108E-02                    1_GWF-(1,25,1)
 Linear Solver             2         2    1.107119E-04                   1_GWF-(1,30,28)
 Under-relaxation          2              1.107119E-04                   1_GWF-(1,30,28)
 Linear Solver             3         1   -6.737180E-06                   1_GWF-(1,30,27)

 3 CALLS TO NUMERICAL SOLUTION IN TIME STEP 4 STRESS PERIOD 35
 7 TOTAL ITERATIONS


 OUTER ITERATION SUMMARY
 ---------------------------------------------------------------------------------------
                       OUTER     INNER         MAXIMUM                    MAXIMUM CHANGE
                   ITERATION ITERATION          CHANGE                    MODEL-(CELLID)
 ---------------------------------------------------------------------------------------
 Linear Solver             1         4    1.157591E-02                    1_GWF-(1,25,1)
 Under-relaxation          1              1.157591E-02                    1_GWF-(1,25,1)
 Linear Solver             2         2    1.097289E-04                   1_GWF-(1,30,28)
 Under-relaxation          2              1.097289E-04                   1_GWF-(1,30,28)
 Linear Solver             3         1   -7.004373E-06                   1_GWF-(1,30,27)

 3 CALLS TO NUMERICAL SOLUTION IN TIME STEP 5 STRESS PERIOD 35
 7 TOTAL ITERATIONS


 OUTER ITERATION SUMMARY
 ---------------------------------------------------------------------------------------
                       OUTER     INNER         MAXIMUM                    MAXIMUM CHANGE
                   ITERATION ITERATION          CHANGE                    MODEL-(CELLID)
 ---------------------------------------------------------------------------------------
 Linear Solver             1         4    1.135040E-02                    1_GWF-(1,25,1)
 Under-relaxation          1              1.135040E-02                    1_GWF-(1,25,1)
 Linear Solver             2         2    1.094526E-04                   1_GWF-(1,30,28)
 Under-relaxation          2              1.094526E-04                   1_GWF-(1,30,28)
 Linear Solver             3         1   -7.160507E-06                   1_GWF-(1,30,27)

 3 CALLS TO NUMERICAL SOLUTION IN TIME STEP 6 STRESS PERIOD 35
 7 TOTAL ITERATIONS


 OUTER ITERATION SUMMARY
 ---------------------------------------------------------------------------------------
                       OUTER     INNER         MAXIMUM                    MAXIMUM CHANGE
                   ITERATION ITERATION          CHANGE                    MODEL-(CELLID)
 ---------------------------------------------------------------------------------------
 Linear Solver             1         4    1.113339E-02                    1_GWF-(1,25,1)
 Under-relaxation          1              1.113339E-02                    1_GWF-(1,25,1)
 Linear Solver             2         2    1.091858E-04                   1_GWF-(1,30,28)
 Under-relaxation          2              1.091858E-04                   1_GWF-(1,30,28)
 Linear Solver             3         1   -7.245043E-06                   1_GWF-(1,30,27)

 3 CALLS TO NUMERICAL SOLUTION IN TIME STEP 7 STRESS PERIOD 35
 7 TOTAL ITERATIONS


 OUTER ITERATION SUMMARY
 ---------------------------------------------------------------------------------------
                       OUTER     INNER         MAXIMUM                    MAXIMUM CHANGE
                   ITERATION ITERATION          CHANGE                    MODEL-(CELLID)
 ---------------------------------------------------------------------------------------
 Linear Solver             1         4    1.092391E-02                    1_GWF-(1,25,1)
 Under-relaxation          1              1.092391E-02                    1_GWF-(1,25,1)
 Linear Solver             2         2    1.087984E-04                   1_GWF-(1,30,28)
 Under-relaxation          2              1.087984E-04                   1_GWF-(1,30,28)
 Linear Solver             3         1   -7.285824E-06                   1_GWF-(1,30,27)

 3 CALLS TO NUMERICAL SOLUTION IN TIME STEP 8 STRESS PERIOD 35
 7 TOTAL ITERATIONS


 OUTER ITERATION SUMMARY
 ---------------------------------------------------------------------------------------
                       OUTER     INNER         MAXIMUM                    MAXIMUM CHANGE
                   ITERATION ITERATION          CHANGE                    MODEL-(CELLID)
 ---------------------------------------------------------------------------------------
 Linear Solver             1         4    1.072114E-02                    1_GWF-(1,25,1)
 Under-relaxation          1              1.072114E-02                    1_GWF-(1,25,1)
 Linear Solver             2         2    1.082826E-04                   1_GWF-(1,30,28)
 Under-relaxation          2              1.082826E-04                   1_GWF-(1,30,28)
 Linear Solver             3         1   -7.299075E-06                   1_GWF-(1,30,27)

 3 CALLS TO NUMERICAL SOLUTION IN TIME STEP 9 STRESS PERIOD 35
 7 TOTAL ITERATIONS


 OUTER ITERATION SUMMARY
 ---------------------------------------------------------------------------------------
                       OUTER     INNER         MAXIMUM                    MAXIMUM CHANGE
                   ITERATION ITERATION          CHANGE                    MODEL-(CELLID)
 ---------------------------------------------------------------------------------------
 Linear Solver             1         4    1.052444E-02                    1_GWF-(1,25,1)
 Under-relaxation          1              1.052444E-02                    1_GWF-(1,25,1)
 Linear Solver             2         2    1.076546E-04                   1_GWF-(1,30,28)
 Under-relaxation          2              1.076546E-04                   1_GWF-(1,30,28)
 Linear Solver             3         1   -7.294053E-06                   1_GWF-(1,30,27)

 3 CALLS TO NUMERICAL SOLUTION IN TIME STEP 10 STRESS PERIOD 35
 7 TOTAL ITERATIONS
1
                            STRESS PERIOD NO.   36, LENGTH =   30.00000    
                            -----------------------------------------------

                              NUMBER OF TIME STEPS =    10

                               MULTIPLIER FOR DELT =     1.000

                            INITIAL TIME STEP SIZE =   3.000000    


 OUTER ITERATION SUMMARY
 ---------------------------------------------------------------------------------------
                       OUTER     INNER         MAXIMUM                    MAXIMUM CHANGE
                   ITERATION ITERATION          CHANGE                    MODEL-(CELLID)
 ---------------------------------------------------------------------------------------
 Linear Solver             1         6   -0.215208                        1_GWF-(1,1,29)
 Under-relaxation          1             -0.215208                        1_GWF-(1,1,29)
 Linear Solver             2         4    1.227907E-02                   1_GWF-(1,29,28)
 Under-relaxation          2              1.227907E-02                   1_GWF-(1,29,28)
 Linear Solver             3         3    5.412527E-04                   1_GWF-(1,30,29)
 Under-relaxation          3              5.412527E-04                   1_GWF-(1,30,29)
 Linear Solver             4         1   -5.664765E-05                   1_GWF-(1,30,28)

 4 CALLS TO NUMERICAL SOLUTION IN TIME STEP 1 STRESS PERIOD 36
 14 TOTAL ITERATIONS


 OUTER ITERATION SUMMARY
 ---------------------------------------------------------------------------------------
                       OUTER     INNER         MAXIMUM                    MAXIMUM CHANGE
                   ITERATION ITERATION          CHANGE                    MODEL-(CELLID)
 ---------------------------------------------------------------------------------------
 Linear Solver             1         5   -6.352605E-02                    1_GWF-(1,1,29)
 Under-relaxation          1             -6.352605E-02                    1_GWF-(1,1,29)
 Linear Solver             2         4    3.757303E-03                    1_GWF-(1,3,27)
 Under-relaxation          2              3.757303E-03                    1_GWF-(1,3,27)
 Linear Solver             3         2    2.604127E-04                    1_GWF-(1,1,28)
 Under-relaxation          3              2.604127E-04                    1_GWF-(1,1,28)
 Linear Solver             4         1   -2.401107E-05                    1_GWF-(1,5,27)

 4 CALLS TO NUMERICAL SOLUTION IN TIME STEP 2 STRESS PERIOD 36
 12 TOTAL ITERATIONS


 OUTER ITERATION SUMMARY
 ---------------------------------------------------------------------------------------
                       OUTER     INNER         MAXIMUM                    MAXIMUM CHANGE
                   ITERATION ITERATION          CHANGE                    MODEL-(CELLID)
 ---------------------------------------------------------------------------------------
 Linear Solver             1         5   -3.263137E-02                    1_GWF-(1,1,28)
 Under-relaxation          1             -3.263137E-02                    1_GWF-(1,1,28)
 Linear Solver             2         3    1.672786E-03                    1_GWF-(1,3,26)
 Under-relaxation          2              1.672786E-03                    1_GWF-(1,3,26)
 Linear Solver             3         2    1.558361E-04                   1_GWF-(1,30,28)
 Under-relaxation          3              1.558361E-04                   1_GWF-(1,30,28)
 Linear Solver             4         1   -1.048092E-05                    1_GWF-(1,3,26)

 4 CALLS TO NUMERICAL SOLUTION IN TIME STEP 3 STRESS PERIOD 36
 11 TOTAL ITERATIONS


 OUTER ITERATION SUMMARY
 ---------------------------------------------------------------------------------------
                       OUTER     INNER         MAXIMUM                    MAXIMUM CHANGE
                   ITERATION ITERATION          CHANGE                    MODEL-(CELLID)
 ---------------------------------------------------------------------------------------
 Linear Solver             1         5   -1.941246E-02                    1_GWF-(1,1,27)
 Under-relaxation          1             -1.941246E-02                    1_GWF-(1,1,27)
 Linear Solver             2         3    9.282359E-04                    1_GWF-(1,2,25)
 Under-relaxation          2              9.282359E-04                    1_GWF-(1,2,25)
 Linear Solver             3         1    9.118394E-05                    1_GWF-(1,2,28)

 3 CALLS TO NUMERICAL SOLUTION IN TIME STEP 4 STRESS PERIOD 36
 9 TOTAL ITERATIONS


 OUTER ITERATION SUMMARY
 ---------------------------------------------------------------------------------------
                       OUTER     INNER         MAXIMUM                    MAXIMUM CHANGE
                   ITERATION ITERATION          CHANGE                    MODEL-(CELLID)
 ---------------------------------------------------------------------------------------
 Linear Solver             1         4    1.351686E-02                    1_GWF-(1,24,1)
 Under-relaxation          1              1.351686E-02                    1_GWF-(1,24,1)
 Linear Solver             2         3    5.860756E-04                   1_GWF-(1,29,24)
 Under-relaxation          2              5.860756E-04                   1_GWF-(1,29,24)
 Linear Solver             3         1    5.584732E-05                   1_GWF-(1,30,28)

 3 CALLS TO NUMERICAL SOLUTION IN TIME STEP 5 STRESS PERIOD 36
 8 TOTAL ITERATIONS


 OUTER ITERATION SUMMARY
 ---------------------------------------------------------------------------------------
                       OUTER     INNER         MAXIMUM                    MAXIMUM CHANGE
                   ITERATION ITERATION          CHANGE                    MODEL-(CELLID)
 ---------------------------------------------------------------------------------------
 Linear Solver             1         4    1.324092E-02                    1_GWF-(1,24,1)
 Under-relaxation          1              1.324092E-02                    1_GWF-(1,24,1)
 Linear Solver             2         3    4.003378E-04                   1_GWF-(1,29,24)
 Under-relaxation          2              4.003378E-04                   1_GWF-(1,29,24)
 Linear Solver             3         1    3.715904E-05                   1_GWF-(1,30,28)

 3 CALLS TO NUMERICAL SOLUTION IN TIME STEP 6 STRESS PERIOD 36
 8 TOTAL ITERATIONS


 OUTER ITERATION SUMMARY
 ---------------------------------------------------------------------------------------
                       OUTER     INNER         MAXIMUM                    MAXIMUM CHANGE
                   ITERATION ITERATION          CHANGE                    MODEL-(CELLID)
 ---------------------------------------------------------------------------------------
 Linear Solver             1         4    1.294278E-02                    1_GWF-(1,24,1)
 Under-relaxation          1              1.294278E-02                    1_GWF-(1,24,1)
 Linear Solver             2         2    2.843705E-04                   1_GWF-(1,30,24)
 Under-relaxation          2              2.843705E-04                   1_GWF-(1,30,24)
 Linear Solver             3         1    3.088238E-05                   1_GWF-(1,30,28)

 3 CALLS TO NUMERICAL SOLUTION IN TIME STEP 7 STRESS PERIOD 36
 7 TOTAL ITERATIONS


 OUTER ITERATION SUMMARY
 ---------------------------------------------------------------------------------------
                       OUTER     INNER         MAXIMUM                    MAXIMUM CHANGE
                   ITERATION ITERATION          CHANGE                    MODEL-(CELLID)
 ---------------------------------------------------------------------------------------
 Linear Solver             1         4    1.262660E-02                    1_GWF-(1,24,1)
 Under-relaxation          1              1.262660E-02                    1_GWF-(1,24,1)
 Linear Solver             2         2    2.118434E-04                   1_GWF-(1,30,23)
 Under-relaxation          2              2.118434E-04                   1_GWF-(1,30,23)
 Linear Solver             3         1    2.133202E-05                   1_GWF-(1,30,28)

 3 CALLS TO NUMERICAL SOLUTION IN TIME STEP 8 STRESS PERIOD 36
 7 TOTAL ITERATIONS


 OUTER ITERATION SUMMARY
 ---------------------------------------------------------------------------------------
                       OUTER     INNER         MAXIMUM                    MAXIMUM CHANGE
                   ITERATION ITERATION          CHANGE                    MODEL-(CELLID)
 ---------------------------------------------------------------------------------------
 Linear Solver             1         4    1.229465E-02                    1_GWF-(1,24,1)
 Under-relaxation          1              1.229465E-02                    1_GWF-(1,24,1)
 Linear Solver             2         2    1.611856E-04                   1_GWF-(1,30,23)
 Under-relaxation          2              1.611856E-04                   1_GWF-(1,30,23)
 Linear Solver             3         1    1.458029E-05                   1_GWF-(1,30,28)

 3 CALLS TO NUMERICAL SOLUTION IN TIME STEP 9 STRESS PERIOD 36
 7 TOTAL ITERATIONS


 OUTER ITERATION SUMMARY
 ---------------------------------------------------------------------------------------
                       OUTER     INNER         MAXIMUM                    MAXIMUM CHANGE
                   ITERATION ITERATION          CHANGE                    MODEL-(CELLID)
 ---------------------------------------------------------------------------------------
 Linear Solver             1         4    1.195379E-02                    1_GWF-(1,25,1)
 Under-relaxation          1              1.195379E-02                    1_GWF-(1,25,1)
 Linear Solver             2         2    1.247784E-04                   1_GWF-(1,30,23)
 Under-relaxation          2              1.247784E-04                   1_GWF-(1,30,23)
 Linear Solver             3         1    9.618014E-06                   1_GWF-(1,30,28)

 3 CALLS TO NUMERICAL SOLUTION IN TIME STEP 10 STRESS PERIOD 36
 7 TOTAL ITERATIONS

 INFORMATION ON VARIABLES STORED IN THE MEMORY MANAGER
 
 Number of allocated integer variables:   39785
 Number of allocated real variables:    45108
 Allocated memory in megabytes:    0.520004    
 

 Run end date and time (yyyy/mm/dd hh:mm:ss): 2020/04/21 14:39:50
 Elapsed run time:  3.108 Seconds

 Normal termination of simulation.
