                                   MODFLOW 6
                U.S. GEOLOGICAL SURVEY MODULAR HYDROLOGIC MODEL
                          GROUNDWATER FLOW MODEL (GWF)
                            VERSION 6.0.4 03/13/2019

   MODFLOW 6 compiled Mar 21 2019 15:37:31 with IFORT compiler (ver. 19.0.0)

This software has been approved for release by the U.S. Geological 
Survey (USGS). Although the software has been subjected to rigorous 
review, the USGS reserves the right to update the software as needed 
pursuant to further analysis and review. No warranty, expressed or 
implied, is made by the USGS or the U.S. Government as to the 
functionality of the software and related material nor shall the 
fact of release constitute any such warranty. Furthermore, the 
software is released on condition that neither the USGS nor the U.S. 
Government shall be held liable for any damages resulting from its 
authorized or unauthorized use. Also refer to the USGS Water 
Resources Software User Rights Notice for complete use, copyright, 
and distribution information.


MODFLOW was compiled using uniform precision.
Precision of REAL variables: 15


 OPENED test_trans.dis
 FILE TYPE:DIS6                   UNIT 1005   STATUS:OLD                 
 FORMAT:FORMATTED              ACCESS:SEQUENTIAL          
 ACTION:READ                


 OPENED test_trans.ic
 FILE TYPE:IC6                    UNIT 1006   STATUS:OLD                 
 FORMAT:FORMATTED              ACCESS:SEQUENTIAL          
 ACTION:READ                


 OPENED test_trans.npf
 FILE TYPE:NPF6                   UNIT 1007   STATUS:OLD                 
 FORMAT:FORMATTED              ACCESS:SEQUENTIAL          
 ACTION:READ                


 OPENED test_trans.oc
 FILE TYPE:OC6                    UNIT 1008   STATUS:OLD                 
 FORMAT:FORMATTED              ACCESS:SEQUENTIAL          
 ACTION:READ                


 OPENED test_trans.sto
 FILE TYPE:STO6                   UNIT 1009   STATUS:OLD                 
 FORMAT:FORMATTED              ACCESS:SEQUENTIAL          
 ACTION:READ                


 OPENED test_trans.rcha
 FILE TYPE:RCH6                   UNIT 1010   STATUS:OLD                 
 FORMAT:FORMATTED              ACCESS:SEQUENTIAL          
 ACTION:READ                


 OPENED test_trans.chd
 FILE TYPE:CHD6                   UNIT 1011   STATUS:OLD                 
 FORMAT:FORMATTED              ACCESS:SEQUENTIAL          
 ACTION:READ                


 OPENED test_trans.obs
 FILE TYPE:OBS6                   UNIT 1012   STATUS:OLD                 
 FORMAT:FORMATTED              ACCESS:SEQUENTIAL          
 ACTION:READ                

 NAMEFILE OPTIONS:
    FLOWS WILL BE SAVED TO BUDGET FILE SPECIFIED IN OUTPUT CONTROL

 DIS -- STRUCTURED GRID DISCRETIZATION PACKAGE, VERSION 2 : 3/27/2014 - INPUT READ FROM UNIT 1005


 PROCESSING DISCRETIZATION OPTIONS
 END OF DISCRETIZATION OPTIONS
 MODEL LENGTH UNIT IS UNDEFINED
 PROCESSING DISCRETIZATION DIMENSIONS
    NLAY =       1
    NROW =      30
    NCOL =      30
 END OF DISCRETIZATION DIMENSIONS
 PROCESSING GRIDDATA

                     DELR =   10.00000    

                     DELC =   10.00000    

 TOP ELEVATION OF LAYER 1 =   30.00000    

   MODEL LAYER BOTTOM EL. =   23.00000    

                  IDOMAIN = 1
 END PROCESSING GRIDDATA

 NPF -- NODE PROPERTY FLOW PACKAGE, VERSION 1, 3/30/2015 INPUT READ FROM UNIT 1007


 PROCESSING NPF OPTIONS
    CELL-BY-CELL FLOW INFORMATION WILL BE SAVED TO BINARY FILE WHENEVER ICBCFL IS NOT ZERO.
 END OF NPF OPTIONS

 RCH   -- RCH PACKAGE, VERSION 8, 2/22/2014 INPUT READ FROM UNIT 1010

 PROCESSING RCH OPTIONS
    RECHARGE INPUT WILL BE READ AS ARRAY(S).
 END OF RCH OPTIONS

 CHD   -- CHD PACKAGE, VERSION 8, 2/22/2014 INPUT READ FROM UNIT 1011

 PROCESSING CHD OPTIONS
 END OF CHD OPTIONS

 PROCESSING CHD DIMENSIONS
    MAXBOUND =      30
 END OF CHD DIMENSIONS

 IC -- INITIAL CONDITIONS PACKAGE, VERSION 8, 3/28/2015 INPUT READ FROM UNIT 1006
 PROCESSING GRIDDATA

     INITIAL HEAD =   25.00000    
 END PROCESSING GRIDDATA
 PROCESSING GRIDDATA

                ICELLTYPE = 1

                        K =   8.640000    
 K33 not provided.  Assuming K33 = K.
 K22 not provided.  Assuming K22 = K.
 END PROCESSING GRIDDATA

 STO -- STORAGE PACKAGE, VERSION 1, 5/19/2014 INPUT READ FROM UNIT 1009


 PROCESSING STORAGE OPTIONS
    CELL-BY-CELL FLOW INFORMATION WILL BE SAVED TO BINARY FILE WHENEVER ICBCFL IS NOT ZERO.
 END OF STORAGE OPTIONS
 PROCESSING GRIDDATA

                 ICONVERT = 1

         SPECIFIC STORAGE =  0.1000000E-04

           SPECIFIC YIELD =  0.2000000    
 END PROCESSING GRIDDATA

The observation utility is active for "TEST_TRANS"

Processing observation options:

Text output number of digits of precision set to: 10
The PRINT_INPUT option has been specified.


Observations read from file "test_trans.obs":
Name                                      Type                             Time         Location data
----------------------------------------  -------------------------------  -----------  --------------------------
H1                                        Continuous HEAD                  All times    "1 2 28"
ICF1_1.0                                  Continuous FLOW-JA-FACE          All times    "1 5 6  1 6 6"
H3-13-9                                   Continuous HEAD                  All times    "1 13 9"
    BINARY GRID INFORMATION WILL BE WRITTEN TO:
      UNIT NUMBER: 1017
      FILE NAME: C:\Users\emmal\Documents\GitHub\TM_Ludovic_Schorpp\codes_tests\notebooks_essais\workspace\test_trans.dis.grb

 OPENED C:\Users\emmal\Documents\GitHub\TM_Ludovic_Schorpp\codes_tests\notebooks_essais\workspace\test_trans.dis.grb
 FILE TYPE:DATA(BINARY)   UNIT 1017   STATUS:REPLACE             
 FORMAT:UNFORMATTED            ACCESS:STREAM              
 ACTION:READWRITE           

      THE LAST TIME STEP WILL BE PRINTED
      THE LAST TIME STEP WILL BE PRINTED
 PROCESSING OC OPTIONS
    BUDGET INFORMATION WILL BE WRITTEN TO:
      UNIT NUMBER: 1018
      FILE NAME: test_trans.cbb

 OPENED test_trans.cbb
 FILE TYPE:DATA(BINARY)   UNIT 1018   STATUS:REPLACE             
 FORMAT:UNFORMATTED            ACCESS:STREAM              
 ACTION:READWRITE           

    HEAD INFORMATION WILL BE WRITTEN TO:
      UNIT NUMBER: 1019
      FILE NAME: test_trans.hds

 OPENED test_trans.hds
 FILE TYPE:DATA(BINARY)   UNIT 1019   STATUS:REPLACE             
 FORMAT:UNFORMATTED            ACCESS:STREAM              
 ACTION:READWRITE           

 END OF OC OPTIONS

 BEGIN READING OUTPUT CONTROL FOR STRESS PERIOD 1
      ALL TIME STEPS WILL BE SAVED
      ALL TIME STEPS WILL BE SAVED
      THE FIRST TIME STEP WILL BE PRINTED
      THE LAST TIME STEP WILL BE PRINTED
      THE LAST TIME STEP WILL BE PRINTED

 END READING OUTPUT CONTROL FOR STRESS PERIOD 1


 UPDATING STORAGE VALUES
 END UPDATING STORAGE VALUES


 STRESS PERIOD 1 IS STEADY-STATE


                 RECHARGE =  0.2739730E-02
 UBDSV1 SAVING           STO-SS ON UNIT   1018 AT TIME STEP      1, STRESS PERIOD      1
 UBDSV1 SAVING           STO-SY ON UNIT   1018 AT TIME STEP      1, STRESS PERIOD      1
 UBDSV1 SAVING     FLOW-JA-FACE ON UNIT   1018 AT TIME STEP      1, STRESS PERIOD      1
 UBDSV06 SAVING              RCH IN MODEL TEST_TRANS       PACKAGE TEST_TRANS      CONNECTED TO MODEL TEST_TRANS       PACKAGE RCHA             ON UNIT   1018 AT TIME STEP      1, STRESS PERIOD      1
 UBDSV06 SAVING              CHD IN MODEL TEST_TRANS       PACKAGE TEST_TRANS      CONNECTED TO MODEL TEST_TRANS       PACKAGE CHD              ON UNIT   1018 AT TIME STEP      1, STRESS PERIOD      1
1
  HEAD IN LAYER   1 AT END OF TIME STEP   1 IN STRESS PERIOD    1
  ---------------------------------------------------------------------------

                1               2               3               4               5               6               7               8               9              10
               11              12              13              14              15              16              17              18              19              20
               21              22              23              24              25              26              27              28              29              30
 ................................................................................................................................................................
   1      28.3696         28.3636         28.3518         28.3340         28.3102         28.2802         28.2440         28.2015         28.1525         28.0968    
          28.0342         27.9644         27.8871         27.8020         27.7086         27.6065         27.4949         27.3733         27.2407         27.0961    
          26.9382         26.7652         26.5749         26.3645         26.1298         25.8647         25.5597         25.1976         24.7404         23.4467    
   2      28.3696         28.3637         28.3518         28.3340         28.3101         28.2802         28.2440         28.2015         28.1525         28.0968    
          28.0342         27.9644         27.8871         27.8020         27.7086         27.6065         27.4949         27.3733         27.2407         27.0961    
          26.9382         26.7652         26.5749         26.3645         26.1298         25.8647         25.5597         25.1976         24.7404         23.4467    
   3      28.3696         28.3637         28.3518         28.3340         28.3102         28.2802         28.2440         28.2015         28.1525         28.0968    
          28.0342         27.9644         27.8871         27.8020         27.7086         27.6065         27.4949         27.3733         27.2407         27.0961    
          26.9382         26.7652         26.5749         26.3645         26.1298         25.8647         25.5597         25.1976         24.7404         23.4467    
   4      28.3696         28.3637         28.3518         28.3340         28.3102         28.2802         28.2440         28.2015         28.1525         28.0968    
          28.0342         27.9644         27.8871         27.8020         27.7086         27.6065         27.4949         27.3733         27.2407         27.0961    
          26.9382         26.7652         26.5749         26.3645         26.1298         25.8647         25.5597         25.1976         24.7404         23.4467    
   5      28.3696         28.3637         28.3518         28.3340         28.3102         28.2802         28.2440         28.2015         28.1525         28.0968    
          28.0342         27.9644         27.8871         27.8020         27.7086         27.6065         27.4949         27.3733         27.2407         27.0961    
          26.9382         26.7652         26.5749         26.3645         26.1298         25.8647         25.5597         25.1976         24.7404         23.4467    
   6      28.3696         28.3637         28.3518         28.3340         28.3102         28.2802         28.2440         28.2015         28.1525         28.0968    
          28.0342         27.9644         27.8871         27.8020         27.7086         27.6065         27.4949         27.3733         27.2407         27.0961    
          26.9382         26.7652         26.5749         26.3645         26.1298         25.8647         25.5597         25.1976         24.7404         23.4467    
   7      28.3695         28.3636         28.3518         28.3340         28.3102         28.2802         28.2441         28.2015         28.1525         28.0968    
          28.0342         27.9644         27.8871         27.8020         27.7086         27.6065         27.4949         27.3733         27.2407         27.0961    
          26.9382         26.7652         26.5749         26.3645         26.1298         25.8647         25.5597         25.1976         24.7404         23.4467    
   8      28.3695         28.3636         28.3518         28.3340         28.3102         28.2802         28.2441         28.2015         28.1525         28.0968    
          28.0342         27.9644         27.8871         27.8020         27.7086         27.6065         27.4949         27.3733         27.2407         27.0961    
          26.9382         26.7652         26.5749         26.3645         26.1298         25.8647         25.5597         25.1976         24.7404         23.4467    
   9      28.3695         28.3636         28.3518         28.3340         28.3102         28.2802         28.2441         28.2015         28.1525         28.0968    
          28.0342         27.9644         27.8871         27.8020         27.7086         27.6065         27.4949         27.3733         27.2407         27.0961    
          26.9382         26.7652         26.5749         26.3645         26.1298         25.8647         25.5597         25.1976         24.7404         23.4467    
  10      28.3695         28.3636         28.3518         28.3340         28.3102         28.2802         28.2441         28.2015         28.1525         28.0968    
          28.0342         27.9644         27.8871         27.8020         27.7086         27.6065         27.4949         27.3733         27.2407         27.0961    
          26.9382         26.7652         26.5749         26.3645         26.1298         25.8647         25.5597         25.1976         24.7404         23.4467    
  11      28.3695         28.3636         28.3518         28.3340         28.3102         28.2802         28.2441         28.2015         28.1525         28.0968    
          28.0342         27.9644         27.8871         27.8020         27.7086         27.6065         27.4949         27.3733         27.2407         27.0961    
          26.9382         26.7652         26.5749         26.3645         26.1298         25.8647         25.5597         25.1976         24.7404         23.4467    
  12      28.3696         28.3636         28.3518         28.3340         28.3101         28.2802         28.2440         28.2015         28.1525         28.0968    
          28.0342         27.9644         27.8871         27.8020         27.7086         27.6065         27.4949         27.3733         27.2407         27.0961    
          26.9382         26.7652         26.5749         26.3645         26.1298         25.8647         25.5597         25.1976         24.7404         23.4467    
  13      28.3696         28.3636         28.3518         28.3340         28.3101         28.2802         28.2440         28.2015         28.1525         28.0968    
          28.0342         27.9644         27.8871         27.8020         27.7086         27.6065         27.4949         27.3733         27.2407         27.0961    
          26.9382         26.7652         26.5749         26.3645         26.1298         25.8647         25.5597         25.1976         24.7404         23.4467    
  14      28.3696         28.3637         28.3518         28.3340         28.3101         28.2802         28.2440         28.2015         28.1525         28.0968    
          28.0342         27.9644         27.8871         27.8020         27.7086         27.6065         27.4949         27.3733         27.2407         27.0961    
          26.9382         26.7652         26.5749         26.3645         26.1298         25.8647         25.5597         25.1976         24.7404         23.4467    
  15      28.3696         28.3637         28.3518         28.3340         28.3102         28.2802         28.2440         28.2015         28.1525         28.0968    
          28.0342         27.9644         27.8871         27.8020         27.7086         27.6065         27.4949         27.3733         27.2407         27.0961    
          26.9382         26.7652         26.5749         26.3645         26.1298         25.8647         25.5597         25.1976         24.7404         23.4467    
  16      28.3696         28.3637         28.3518         28.3340         28.3102         28.2802         28.2440         28.2015         28.1525         28.0968    
          28.0342         27.9644         27.8871         27.8020         27.7086         27.6065         27.4949         27.3733         27.2407         27.0961    
          26.9382         26.7652         26.5749         26.3645         26.1298         25.8647         25.5597         25.1976         24.7404         23.4467    
  17      28.3696         28.3637         28.3518         28.3340         28.3102         28.2802         28.2440         28.2015         28.1525         28.0968    
          28.0342         27.9644         27.8871         27.8020         27.7086         27.6065         27.4949         27.3733         27.2407         27.0961    
          26.9382         26.7652         26.5749         26.3645         26.1298         25.8647         25.5597         25.1976         24.7404         23.4467    
  18      28.3696         28.3637         28.3518         28.3340         28.3102         28.2802         28.2440         28.2015         28.1525         28.0968    
          28.0342         27.9644         27.8871         27.8020         27.7086         27.6065         27.4949         27.3733         27.2407         27.0961    
          26.9382         26.7652         26.5749         26.3645         26.1298         25.8647         25.5597         25.1976         24.7404         23.4467    
  19      28.3696         28.3637         28.3518         28.3340         28.3102         28.2802         28.2440         28.2015         28.1525         28.0968    
          28.0342         27.9644         27.8871         27.8020         27.7086         27.6065         27.4949         27.3733         27.2407         27.0961    
          26.9382         26.7652         26.5749         26.3645         26.1298         25.8647         25.5597         25.1976         24.7404         23.4467    
  20      28.3696         28.3637         28.3518         28.3340         28.3102         28.2802         28.2441         28.2015         28.1525         28.0968    
          28.0342         27.9644         27.8871         27.8020         27.7086         27.6065         27.4949         27.3733         27.2407         27.0961    
          26.9382         26.7652         26.5749         26.3645         26.1298         25.8647         25.5597         25.1976         24.7404         23.4467    
  21      28.3696         28.3637         28.3518         28.3340         28.3102         28.2802         28.2441         28.2015         28.1525         28.0968    
          28.0342         27.9644         27.8871         27.8020         27.7086         27.6065         27.4949         27.3733         27.2407         27.0961    
          26.9382         26.7652         26.5749         26.3645         26.1297         25.8647         25.5597         25.1976         24.7404         23.4467    
  22      28.3696         28.3637         28.3518         28.3340         28.3102         28.2802         28.2441         28.2015         28.1525         28.0968    
          28.0342         27.9644         27.8871         27.8020         27.7086         27.6065         27.4949         27.3733         27.2407         27.0961    
          26.9382         26.7652         26.5749         26.3645         26.1297         25.8647         25.5597         25.1976         24.7404         23.4467    
  23      28.3696         28.3637         28.3518         28.3340         28.3102         28.2802         28.2441         28.2015         28.1525         28.0968    
          28.0342         27.9644         27.8871         27.8020         27.7086         27.6065         27.4949         27.3733         27.2407         27.0961    
          26.9382         26.7652         26.5749         26.3645         26.1297         25.8647         25.5597         25.1976         24.7404         23.4467    
  24      28.3696         28.3637         28.3518         28.3340         28.3102         28.2802         28.2441         28.2015         28.1525         28.0968    
          28.0342         27.9644         27.8871         27.8020         27.7086         27.6065         27.4949         27.3733         27.2407         27.0961    
          26.9382         26.7652         26.5749         26.3645         26.1297         25.8647         25.5597         25.1976         24.7404         23.4467    
  25      28.3696         28.3637         28.3518         28.3340         28.3102         28.2802         28.2441         28.2015         28.1525         28.0968    
          28.0342         27.9644         27.8871         27.8020         27.7086         27.6065         27.4949         27.3733         27.2407         27.0961    
          26.9382         26.7652         26.5749         26.3645         26.1297         25.8647         25.5597         25.1976         24.7404         23.4467    
  26      28.3696         28.3637         28.3518         28.3340         28.3102         28.2802         28.2441         28.2015         28.1525         28.0968    
          28.0342         27.9644         27.8871         27.8020         27.7086         27.6065         27.4949         27.3733         27.2407         27.0961    
          26.9382         26.7651         26.5749         26.3645         26.1297         25.8647         25.5597         25.1976         24.7404         23.4467    
  27      28.3696         28.3637         28.3518         28.3340         28.3102         28.2802         28.2440         28.2015         28.1525         28.0968    
          28.0342         27.9644         27.8871         27.8020         27.7086         27.6065         27.4949         27.3733         27.2407         27.0961    
          26.9381         26.7651         26.5749         26.3645         26.1297         25.8647         25.5597         25.1976         24.7404         23.4467    
  28      28.3696         28.3637         28.3518         28.3340         28.3102         28.2802         28.2440         28.2015         28.1525         28.0968    
          28.0342         27.9644         27.8871         27.8020         27.7086         27.6065         27.4949         27.3733         27.2407         27.0961    
          26.9381         26.7651         26.5749         26.3645         26.1297         25.8647         25.5597         25.1976         24.7404         23.4467    
  29      28.3696         28.3637         28.3518         28.3340         28.3102         28.2802         28.2440         28.2015         28.1525         28.0968    
          28.0342         27.9644         27.8871         27.8020         27.7086         27.6065         27.4949         27.3733         27.2407         27.0961    
          26.9381         26.7651         26.5749         26.3645         26.1297         25.8647         25.5597         25.1976         24.7404         23.4467    
  30      28.3696         28.3636         28.3518         28.3340         28.3102         28.2802         28.2440         28.2015         28.1525         28.0968    
          28.0342         27.9644         27.8871         27.8020         27.7086         27.6065         27.4949         27.3733         27.2407         27.0961    
          26.9381         26.7651         26.5749         26.3645         26.1297         25.8647         25.5597         25.1976         24.7404         23.4467    

 HEAD WILL BE SAVED ON UNIT 1019 AT END OF TIME STEP    1, STRESS PERIOD    1


  VOLUME BUDGET FOR ENTIRE MODEL AT END OF TIME STEP    1, STRESS PERIOD   1
  ---------------------------------------------------------------------------------------------------

     CUMULATIVE VOLUME      L**3       RATES FOR THIS TIME STEP      L**3/T          PACKAGE NAME    
     ------------------                 ------------------------                     ----------------

           IN:                                      IN:
           ---                                      ---
              STO-SS =           0.0000                STO-SS =           0.0000     STORAGE         
              STO-SY =           0.0000                STO-SY =           0.0000     STORAGE         
                 RCH =         238.3565                   RCH =         238.3565     RCHA            
                 CHD =           0.0000                   CHD =           0.0000     CHD             

            TOTAL IN =         238.3565              TOTAL IN =         238.3565

          OUT:                                     OUT:
          ----                                     ----
              STO-SS =           0.0000                STO-SS =           0.0000     STORAGE         
              STO-SY =           0.0000                STO-SY =           0.0000     STORAGE         
                 RCH =           0.0000                   RCH =           0.0000     RCHA            
                 CHD =         238.4015                   CHD =         238.4015     CHD             

           TOTAL OUT =         238.4015             TOTAL OUT =         238.4015

            IN - OUT =      -4.4991E-02              IN - OUT =      -4.4991E-02

 PERCENT DISCREPANCY =          -0.02     PERCENT DISCREPANCY =          -0.02




         TIME SUMMARY AT END OF TIME STEP    1 IN STRESS PERIOD    1
                    SECONDS     MINUTES      HOURS       DAYS        YEARS
                    -----------------------------------------------------------
   TIME STEP LENGTH  86400.      1440.0      24.000      1.0000     2.73785E-03
 STRESS PERIOD TIME  86400.      1440.0      24.000      1.0000     2.73785E-03
         TOTAL TIME  86400.      1440.0      24.000      1.0000     2.73785E-03

 END OF FILE DETECTED IN OUTPUT CONTROL.
 CURRENT OUTPUT CONTROL SETTINGS WILL BE 
 REPEATED UNTIL THE END OF THE SIMULATION.

 OUTPUT CONTROL FOR STRESS PERIOD 2 IS REPEATED USING SETTINGS FROM A PREVIOUS STRESS PERIOD.


 UPDATING STORAGE VALUES
 END UPDATING STORAGE VALUES


 STRESS PERIOD 2 IS TRANSIENT


                 RECHARGE =  0.3287670E-02
 UBDSV1 SAVING           STO-SS ON UNIT   1018 AT TIME STEP      1, STRESS PERIOD      2
 UBDSV1 SAVING           STO-SY ON UNIT   1018 AT TIME STEP      1, STRESS PERIOD      2
 UBDSV1 SAVING     FLOW-JA-FACE ON UNIT   1018 AT TIME STEP      1, STRESS PERIOD      2
 UBDSV06 SAVING              RCH IN MODEL TEST_TRANS       PACKAGE TEST_TRANS      CONNECTED TO MODEL TEST_TRANS       PACKAGE RCHA             ON UNIT   1018 AT TIME STEP      1, STRESS PERIOD      2
 UBDSV06 SAVING              CHD IN MODEL TEST_TRANS       PACKAGE TEST_TRANS      CONNECTED TO MODEL TEST_TRANS       PACKAGE CHD              ON UNIT   1018 AT TIME STEP      1, STRESS PERIOD      2
1
  HEAD IN LAYER   1 AT END OF TIME STEP   1 IN STRESS PERIOD    2
  ---------------------------------------------------------------------------

                1               2               3               4               5               6               7               8               9              10
               11              12              13              14              15              16              17              18              19              20
               21              22              23              24              25              26              27              28              29              30
 ................................................................................................................................................................
   1      28.3777         28.3718         28.3599         28.3421         28.3183         28.2883         28.2522         28.2097         28.1606         28.1049    
          28.0423         27.9725         27.8952         27.8101         27.7167         27.6145         27.5030         27.3813         27.2487         27.1040    
          26.9459         26.7727         26.5821         26.3712         26.1355         25.8687         25.5603         25.1911         24.7156         23.8794    
   2      28.3777         28.3718         28.3599         28.3421         28.3183         28.2883         28.2522         28.2097         28.1606         28.1049    
          28.0423         27.9725         27.8952         27.8101         27.7167         27.6145         27.5030         27.3813         27.2487         27.1040    
          26.9459         26.7727         26.5821         26.3712         26.1355         25.8687         25.5603         25.1911         24.7156         23.8794    
   3      28.3777         28.3718         28.3599         28.3421         28.3183         28.2883         28.2522         28.2097         28.1606         28.1049    
          28.0423         27.9725         27.8952         27.8101         27.7167         27.6145         27.5030         27.3813         27.2487         27.1040    
          26.9459         26.7727         26.5821         26.3712         26.1355         25.8687         25.5603         25.1911         24.7156         23.8794    
   4      28.3777         28.3718         28.3599         28.3421         28.3183         28.2883         28.2522         28.2097         28.1606         28.1049    
          28.0423         27.9725         27.8952         27.8101         27.7167         27.6145         27.5030         27.3813         27.2487         27.1040    
          26.9459         26.7727         26.5821         26.3712         26.1355         25.8687         25.5603         25.1911         24.7156         23.8794    
   5      28.3777         28.3718         28.3599         28.3421         28.3183         28.2883         28.2522         28.2097         28.1606         28.1049    
          28.0423         27.9725         27.8952         27.8101         27.7167         27.6145         27.5030         27.3813         27.2487         27.1040    
          26.9459         26.7727         26.5821         26.3712         26.1355         25.8687         25.5603         25.1911         24.7156         23.8794    
   6      28.3777         28.3718         28.3599         28.3421         28.3183         28.2883         28.2522         28.2097         28.1606         28.1049    
          28.0423         27.9725         27.8952         27.8101         27.7167         27.6145         27.5030         27.3813         27.2487         27.1040    
          26.9459         26.7727         26.5821         26.3712         26.1355         25.8687         25.5603         25.1911         24.7156         23.8794    
   7      28.3777         28.3718         28.3599         28.3421         28.3183         28.2883         28.2522         28.2097         28.1606         28.1049    
          28.0423         27.9725         27.8952         27.8101         27.7167         27.6145         27.5030         27.3813         27.2487         27.1040    
          26.9459         26.7727         26.5821         26.3711         26.1355         25.8687         25.5603         25.1911         24.7156         23.8794    
   8      28.3777         28.3718         28.3599         28.3421         28.3183         28.2883         28.2522         28.2097         28.1606         28.1049    
          28.0423         27.9725         27.8952         27.8101         27.7167         27.6145         27.5030         27.3813         27.2487         27.1040    
          26.9459         26.7727         26.5821         26.3711         26.1355         25.8687         25.5603         25.1911         24.7156         23.8794    
   9      28.3777         28.3718         28.3599         28.3421         28.3183         28.2883         28.2522         28.2097         28.1606         28.1049    
          28.0423         27.9725         27.8952         27.8101         27.7167         27.6145         27.5030         27.3813         27.2487         27.1040    
          26.9459         26.7727         26.5821         26.3711         26.1355         25.8687         25.5603         25.1911         24.7156         23.8794    
  10      28.3777         28.3718         28.3599         28.3421         28.3183         28.2883         28.2522         28.2097         28.1606         28.1049    
          28.0423         27.9725         27.8952         27.8101         27.7167         27.6145         27.5030         27.3813         27.2487         27.1040    
          26.9459         26.7727         26.5821         26.3711         26.1355         25.8687         25.5603         25.1911         24.7156         23.8794    
  11      28.3777         28.3718         28.3599         28.3421         28.3183         28.2883         28.2522         28.2097         28.1606         28.1049    
          28.0423         27.9725         27.8952         27.8101         27.7167         27.6145         27.5030         27.3813         27.2487         27.1040    
          26.9459         26.7727         26.5821         26.3711         26.1355         25.8687         25.5603         25.1911         24.7156         23.8794    
  12      28.3777         28.3718         28.3599         28.3421         28.3183         28.2883         28.2522         28.2097         28.1606         28.1049    
          28.0423         27.9725         27.8952         27.8101         27.7167         27.6145         27.5030         27.3813         27.2487         27.1040    
          26.9459         26.7727         26.5821         26.3711         26.1355         25.8687         25.5603         25.1911         24.7156         23.8794    
  13      28.3777         28.3718         28.3599         28.3421         28.3183         28.2883         28.2522         28.2097         28.1606         28.1049    
          28.0423         27.9725         27.8952         27.8101         27.7167         27.6145         27.5030         27.3813         27.2487         27.1040    
          26.9459         26.7727         26.5821         26.3711         26.1355         25.8687         25.5603         25.1911         24.7156         23.8794    
  14      28.3777         28.3718         28.3599         28.3421         28.3183         28.2883         28.2522         28.2097         28.1606         28.1049    
          28.0423         27.9725         27.8952         27.8101         27.7167         27.6145         27.5030         27.3813         27.2487         27.1040    
          26.9459         26.7727         26.5821         26.3711         26.1355         25.8687         25.5603         25.1911         24.7156         23.8794    
  15      28.3777         28.3718         28.3599         28.3421         28.3183         28.2883         28.2522         28.2097         28.1606         28.1049    
          28.0423         27.9725         27.8952         27.8101         27.7167         27.6145         27.5030         27.3813         27.2487         27.1040    
          26.9459         26.7727         26.5821         26.3711         26.1355         25.8687         25.5603         25.1911         24.7156         23.8794    
  16      28.3777         28.3718         28.3599         28.3421         28.3183         28.2883         28.2522         28.2097         28.1606         28.1049    
          28.0423         27.9725         27.8952         27.8101         27.7167         27.6145         27.5030         27.3813         27.2487         27.1040    
          26.9459         26.7727         26.5821         26.3711         26.1355         25.8687         25.5603         25.1911         24.7156         23.8794    
  17      28.3777         28.3718         28.3599         28.3421         28.3183         28.2883         28.2522         28.2097         28.1606         28.1049    
          28.0423         27.9725         27.8952         27.8101         27.7167         27.6145         27.5030         27.3813         27.2487         27.1040    
          26.9459         26.7727         26.5821         26.3711         26.1355         25.8687         25.5603         25.1911         24.7156         23.8794    
  18      28.3777         28.3718         28.3599         28.3421         28.3183         28.2883         28.2522         28.2097         28.1606         28.1049    
          28.0423         27.9725         27.8952         27.8101         27.7167         27.6145         27.5030         27.3813         27.2487         27.1040    
          26.9459         26.7727         26.5821         26.3711         26.1355         25.8687         25.5603         25.1911         24.7156         23.8794    
  19      28.3777         28.3718         28.3599         28.3421         28.3183         28.2883         28.2522         28.2097         28.1606         28.1049    
          28.0423         27.9725         27.8952         27.8101         27.7167         27.6145         27.5030         27.3813         27.2487         27.1040    
          26.9459         26.7727         26.5821         26.3711         26.1355         25.8687         25.5603         25.1911         24.7156         23.8794    
  20      28.3777         28.3718         28.3599         28.3421         28.3183         28.2883         28.2522         28.2097         28.1606         28.1049    
          28.0423         27.9725         27.8952         27.8101         27.7167         27.6145         27.5030         27.3813         27.2487         27.1040    
          26.9459         26.7727         26.5821         26.3711         26.1355         25.8687         25.5603         25.1911         24.7156         23.8794    
  21      28.3777         28.3718         28.3599         28.3421         28.3183         28.2883         28.2522         28.2097         28.1606         28.1049    
          28.0423         27.9725         27.8952         27.8101         27.7167         27.6145         27.5030         27.3813         27.2487         27.1040    
          26.9459         26.7727         26.5821         26.3711         26.1355         25.8687         25.5603         25.1911         24.7156         23.8794    
  22      28.3777         28.3718         28.3599         28.3421         28.3183         28.2883         28.2522         28.2097         28.1606         28.1049    
          28.0423         27.9725         27.8952         27.8101         27.7167         27.6145         27.5030         27.3813         27.2487         27.1040    
          26.9459         26.7727         26.5821         26.3711         26.1355         25.8687         25.5603         25.1911         24.7156         23.8794    
  23      28.3777         28.3718         28.3599         28.3421         28.3183         28.2883         28.2522         28.2097         28.1606         28.1049    
          28.0423         27.9725         27.8952         27.8101         27.7167         27.6145         27.5030         27.3813         27.2487         27.1040    
          26.9459         26.7727         26.5821         26.3711         26.1355         25.8687         25.5603         25.1910         24.7156         23.8794    
  24      28.3777         28.3718         28.3599         28.3421         28.3183         28.2883         28.2522         28.2097         28.1606         28.1049    
          28.0423         27.9725         27.8952         27.8101         27.7167         27.6145         27.5030         27.3813         27.2487         27.1040    
          26.9459         26.7727         26.5821         26.3711         26.1355         25.8687         25.5603         25.1910         24.7156         23.8794    
  25      28.3777         28.3718         28.3599         28.3421         28.3183         28.2883         28.2522         28.2097         28.1606         28.1049    
          28.0423         27.9725         27.8952         27.8101         27.7167         27.6145         27.5030         27.3813         27.2487         27.1040    
          26.9459         26.7727         26.5821         26.3711         26.1355         25.8687         25.5603         25.1910         24.7156         23.8794    
  26      28.3777         28.3718         28.3599         28.3421         28.3183         28.2883         28.2522         28.2097         28.1606         28.1049    
          28.0423         27.9725         27.8952         27.8101         27.7167         27.6145         27.5030         27.3813         27.2487         27.1040    
          26.9459         26.7727         26.5821         26.3711         26.1355         25.8687         25.5603         25.1910         24.7156         23.8794    
  27      28.3777         28.3718         28.3599         28.3421         28.3183         28.2883         28.2522         28.2097         28.1606         28.1049    
          28.0423         27.9725         27.8952         27.8101         27.7167         27.6145         27.5030         27.3813         27.2487         27.1040    
          26.9459         26.7727         26.5821         26.3711         26.1355         25.8687         25.5603         25.1910         24.7156         23.8794    
  28      28.3777         28.3718         28.3599         28.3421         28.3183         28.2883         28.2522         28.2097         28.1606         28.1049    
          28.0423         27.9725         27.8952         27.8101         27.7167         27.6145         27.5030         27.3813         27.2487         27.1040    
          26.9459         26.7727         26.5821         26.3711         26.1355         25.8687         25.5603         25.1910         24.7156         23.8794    
  29      28.3777         28.3718         28.3599         28.3421         28.3183         28.2883         28.2522         28.2097         28.1606         28.1049    
          28.0423         27.9725         27.8952         27.8101         27.7167         27.6145         27.5030         27.3813         27.2487         27.1040    
          26.9459         26.7727         26.5821         26.3711         26.1355         25.8687         25.5603         25.1910         24.7156         23.8794    
  30      28.3777         28.3718         28.3599         28.3421         28.3183         28.2883         28.2522         28.2097         28.1606         28.1049    
          28.0423         27.9725         27.8952         27.8101         27.7167         27.6145         27.5030         27.3813         27.2487         27.1040    
          26.9459         26.7727         26.5821         26.3711         26.1355         25.8687         25.5603         25.1910         24.7156         23.8794    

 HEAD WILL BE SAVED ON UNIT 1019 AT END OF TIME STEP    1, STRESS PERIOD    2



         TIME SUMMARY AT END OF TIME STEP    1 IN STRESS PERIOD    2
                    SECONDS     MINUTES      HOURS       DAYS        YEARS
                    -----------------------------------------------------------
   TIME STEP LENGTH 2.59200E+05  4320.0      72.000      3.0000     8.21355E-03
 STRESS PERIOD TIME 2.59200E+05  4320.0      72.000      3.0000     8.21355E-03
         TOTAL TIME 3.45600E+05  5760.0      96.000      4.0000     1.09514E-02
 UBDSV1 SAVING           STO-SS ON UNIT   1018 AT TIME STEP      2, STRESS PERIOD      2
 UBDSV1 SAVING           STO-SY ON UNIT   1018 AT TIME STEP      2, STRESS PERIOD      2
 UBDSV1 SAVING     FLOW-JA-FACE ON UNIT   1018 AT TIME STEP      2, STRESS PERIOD      2
 UBDSV06 SAVING              RCH IN MODEL TEST_TRANS       PACKAGE TEST_TRANS      CONNECTED TO MODEL TEST_TRANS       PACKAGE RCHA             ON UNIT   1018 AT TIME STEP      2, STRESS PERIOD      2
 UBDSV06 SAVING              CHD IN MODEL TEST_TRANS       PACKAGE TEST_TRANS      CONNECTED TO MODEL TEST_TRANS       PACKAGE CHD              ON UNIT   1018 AT TIME STEP      2, STRESS PERIOD      2

 HEAD WILL BE SAVED ON UNIT 1019 AT END OF TIME STEP    2, STRESS PERIOD    2
 UBDSV1 SAVING           STO-SS ON UNIT   1018 AT TIME STEP      3, STRESS PERIOD      2
 UBDSV1 SAVING           STO-SY ON UNIT   1018 AT TIME STEP      3, STRESS PERIOD      2
 UBDSV1 SAVING     FLOW-JA-FACE ON UNIT   1018 AT TIME STEP      3, STRESS PERIOD      2
 UBDSV06 SAVING              RCH IN MODEL TEST_TRANS       PACKAGE TEST_TRANS      CONNECTED TO MODEL TEST_TRANS       PACKAGE RCHA             ON UNIT   1018 AT TIME STEP      3, STRESS PERIOD      2
 UBDSV06 SAVING              CHD IN MODEL TEST_TRANS       PACKAGE TEST_TRANS      CONNECTED TO MODEL TEST_TRANS       PACKAGE CHD              ON UNIT   1018 AT TIME STEP      3, STRESS PERIOD      2

 HEAD WILL BE SAVED ON UNIT 1019 AT END OF TIME STEP    3, STRESS PERIOD    2
 UBDSV1 SAVING           STO-SS ON UNIT   1018 AT TIME STEP      4, STRESS PERIOD      2
 UBDSV1 SAVING           STO-SY ON UNIT   1018 AT TIME STEP      4, STRESS PERIOD      2
 UBDSV1 SAVING     FLOW-JA-FACE ON UNIT   1018 AT TIME STEP      4, STRESS PERIOD      2
 UBDSV06 SAVING              RCH IN MODEL TEST_TRANS       PACKAGE TEST_TRANS      CONNECTED TO MODEL TEST_TRANS       PACKAGE RCHA             ON UNIT   1018 AT TIME STEP      4, STRESS PERIOD      2
 UBDSV06 SAVING              CHD IN MODEL TEST_TRANS       PACKAGE TEST_TRANS      CONNECTED TO MODEL TEST_TRANS       PACKAGE CHD              ON UNIT   1018 AT TIME STEP      4, STRESS PERIOD      2

 HEAD WILL BE SAVED ON UNIT 1019 AT END OF TIME STEP    4, STRESS PERIOD    2
 UBDSV1 SAVING           STO-SS ON UNIT   1018 AT TIME STEP      5, STRESS PERIOD      2
 UBDSV1 SAVING           STO-SY ON UNIT   1018 AT TIME STEP      5, STRESS PERIOD      2
 UBDSV1 SAVING     FLOW-JA-FACE ON UNIT   1018 AT TIME STEP      5, STRESS PERIOD      2
 UBDSV06 SAVING              RCH IN MODEL TEST_TRANS       PACKAGE TEST_TRANS      CONNECTED TO MODEL TEST_TRANS       PACKAGE RCHA             ON UNIT   1018 AT TIME STEP      5, STRESS PERIOD      2
 UBDSV06 SAVING              CHD IN MODEL TEST_TRANS       PACKAGE TEST_TRANS      CONNECTED TO MODEL TEST_TRANS       PACKAGE CHD              ON UNIT   1018 AT TIME STEP      5, STRESS PERIOD      2

 HEAD WILL BE SAVED ON UNIT 1019 AT END OF TIME STEP    5, STRESS PERIOD    2
 UBDSV1 SAVING           STO-SS ON UNIT   1018 AT TIME STEP      6, STRESS PERIOD      2
 UBDSV1 SAVING           STO-SY ON UNIT   1018 AT TIME STEP      6, STRESS PERIOD      2
 UBDSV1 SAVING     FLOW-JA-FACE ON UNIT   1018 AT TIME STEP      6, STRESS PERIOD      2
 UBDSV06 SAVING              RCH IN MODEL TEST_TRANS       PACKAGE TEST_TRANS      CONNECTED TO MODEL TEST_TRANS       PACKAGE RCHA             ON UNIT   1018 AT TIME STEP      6, STRESS PERIOD      2
 UBDSV06 SAVING              CHD IN MODEL TEST_TRANS       PACKAGE TEST_TRANS      CONNECTED TO MODEL TEST_TRANS       PACKAGE CHD              ON UNIT   1018 AT TIME STEP      6, STRESS PERIOD      2

 HEAD WILL BE SAVED ON UNIT 1019 AT END OF TIME STEP    6, STRESS PERIOD    2
 UBDSV1 SAVING           STO-SS ON UNIT   1018 AT TIME STEP      7, STRESS PERIOD      2
 UBDSV1 SAVING           STO-SY ON UNIT   1018 AT TIME STEP      7, STRESS PERIOD      2
 UBDSV1 SAVING     FLOW-JA-FACE ON UNIT   1018 AT TIME STEP      7, STRESS PERIOD      2
 UBDSV06 SAVING              RCH IN MODEL TEST_TRANS       PACKAGE TEST_TRANS      CONNECTED TO MODEL TEST_TRANS       PACKAGE RCHA             ON UNIT   1018 AT TIME STEP      7, STRESS PERIOD      2
 UBDSV06 SAVING              CHD IN MODEL TEST_TRANS       PACKAGE TEST_TRANS      CONNECTED TO MODEL TEST_TRANS       PACKAGE CHD              ON UNIT   1018 AT TIME STEP      7, STRESS PERIOD      2

 HEAD WILL BE SAVED ON UNIT 1019 AT END OF TIME STEP    7, STRESS PERIOD    2
 UBDSV1 SAVING           STO-SS ON UNIT   1018 AT TIME STEP      8, STRESS PERIOD      2
 UBDSV1 SAVING           STO-SY ON UNIT   1018 AT TIME STEP      8, STRESS PERIOD      2
 UBDSV1 SAVING     FLOW-JA-FACE ON UNIT   1018 AT TIME STEP      8, STRESS PERIOD      2
 UBDSV06 SAVING              RCH IN MODEL TEST_TRANS       PACKAGE TEST_TRANS      CONNECTED TO MODEL TEST_TRANS       PACKAGE RCHA             ON UNIT   1018 AT TIME STEP      8, STRESS PERIOD      2
 UBDSV06 SAVING              CHD IN MODEL TEST_TRANS       PACKAGE TEST_TRANS      CONNECTED TO MODEL TEST_TRANS       PACKAGE CHD              ON UNIT   1018 AT TIME STEP      8, STRESS PERIOD      2

 HEAD WILL BE SAVED ON UNIT 1019 AT END OF TIME STEP    8, STRESS PERIOD    2
 UBDSV1 SAVING           STO-SS ON UNIT   1018 AT TIME STEP      9, STRESS PERIOD      2
 UBDSV1 SAVING           STO-SY ON UNIT   1018 AT TIME STEP      9, STRESS PERIOD      2
 UBDSV1 SAVING     FLOW-JA-FACE ON UNIT   1018 AT TIME STEP      9, STRESS PERIOD      2
 UBDSV06 SAVING              RCH IN MODEL TEST_TRANS       PACKAGE TEST_TRANS      CONNECTED TO MODEL TEST_TRANS       PACKAGE RCHA             ON UNIT   1018 AT TIME STEP      9, STRESS PERIOD      2
 UBDSV06 SAVING              CHD IN MODEL TEST_TRANS       PACKAGE TEST_TRANS      CONNECTED TO MODEL TEST_TRANS       PACKAGE CHD              ON UNIT   1018 AT TIME STEP      9, STRESS PERIOD      2

 HEAD WILL BE SAVED ON UNIT 1019 AT END OF TIME STEP    9, STRESS PERIOD    2
 UBDSV1 SAVING           STO-SS ON UNIT   1018 AT TIME STEP     10, STRESS PERIOD      2
 UBDSV1 SAVING           STO-SY ON UNIT   1018 AT TIME STEP     10, STRESS PERIOD      2
 UBDSV1 SAVING     FLOW-JA-FACE ON UNIT   1018 AT TIME STEP     10, STRESS PERIOD      2
 UBDSV06 SAVING              RCH IN MODEL TEST_TRANS       PACKAGE TEST_TRANS      CONNECTED TO MODEL TEST_TRANS       PACKAGE RCHA             ON UNIT   1018 AT TIME STEP     10, STRESS PERIOD      2
 UBDSV06 SAVING              CHD IN MODEL TEST_TRANS       PACKAGE TEST_TRANS      CONNECTED TO MODEL TEST_TRANS       PACKAGE CHD              ON UNIT   1018 AT TIME STEP     10, STRESS PERIOD      2
1
  HEAD IN LAYER   1 AT END OF TIME STEP  10 IN STRESS PERIOD    2
  ---------------------------------------------------------------------------

                1               2               3               4               5               6               7               8               9              10
               11              12              13              14              15              16              17              18              19              20
               21              22              23              24              25              26              27              28              29              30
 ................................................................................................................................................................
   1      28.4474         28.4415         28.4296         28.4117         28.3877         28.3576         28.3212         28.2784         28.2290         28.1729    
          28.1098         28.0395         27.9615         27.8756         27.7812         27.6779         27.5649         27.4416         27.3071         27.1600    
          26.9992         26.8226         26.6280         26.4122         26.1707         25.8970         25.5804         25.2016         24.7161         23.8794    
   2      28.4474         28.4415         28.4296         28.4117         28.3877         28.3576         28.3212         28.2784         28.2290         28.1729    
          28.1098         28.0395         27.9615         27.8756         27.7812         27.6779         27.5649         27.4416         27.3071         27.1600    
          26.9992         26.8226         26.6280         26.4122         26.1707         25.8970         25.5804         25.2016         24.7161         23.8794    
   3      28.4474         28.4415         28.4296         28.4117         28.3877         28.3576         28.3212         28.2784         28.2290         28.1729    
          28.1098         28.0395         27.9615         27.8756         27.7812         27.6779         27.5649         27.4416         27.3071         27.1600    
          26.9992         26.8226         26.6280         26.4122         26.1707         25.8970         25.5804         25.2016         24.7161         23.8794    
   4      28.4474         28.4415         28.4296         28.4117         28.3877         28.3576         28.3212         28.2784         28.2290         28.1729    
          28.1098         28.0395         27.9615         27.8756         27.7812         27.6779         27.5649         27.4416         27.3071         27.1600    
          26.9992         26.8226         26.6280         26.4122         26.1707         25.8970         25.5804         25.2016         24.7161         23.8794    
   5      28.4474         28.4415         28.4296         28.4117         28.3877         28.3576         28.3212         28.2784         28.2290         28.1729    
          28.1098         28.0395         27.9615         27.8756         27.7812         27.6779         27.5649         27.4416         27.3071         27.1600    
          26.9992         26.8226         26.6280         26.4122         26.1707         25.8970         25.5804         25.2016         24.7161         23.8794    
   6      28.4474         28.4415         28.4296         28.4117         28.3877         28.3576         28.3212         28.2784         28.2290         28.1729    
          28.1098         28.0395         27.9615         27.8756         27.7812         27.6779         27.5649         27.4416         27.3071         27.1600    
          26.9992         26.8226         26.6280         26.4122         26.1707         25.8970         25.5804         25.2016         24.7161         23.8794    
   7      28.4474         28.4415         28.4296         28.4117         28.3877         28.3576         28.3212         28.2784         28.2290         28.1729    
          28.1098         28.0395         27.9615         27.8756         27.7812         27.6779         27.5649         27.4416         27.3071         27.1600    
          26.9992         26.8226         26.6280         26.4122         26.1707         25.8970         25.5804         25.2016         24.7161         23.8794    
   8      28.4474         28.4415         28.4296         28.4117         28.3877         28.3576         28.3212         28.2784         28.2290         28.1729    
          28.1098         28.0395         27.9615         27.8756         27.7812         27.6779         27.5649         27.4416         27.3071         27.1600    
          26.9992         26.8226         26.6280         26.4122         26.1707         25.8970         25.5804         25.2016         24.7161         23.8794    
   9      28.4474         28.4415         28.4296         28.4117         28.3877         28.3576         28.3212         28.2784         28.2290         28.1729    
          28.1098         28.0395         27.9615         27.8756         27.7812         27.6779         27.5649         27.4416         27.3071         27.1600    
          26.9992         26.8226         26.6280         26.4122         26.1707         25.8970         25.5804         25.2016         24.7161         23.8794    
  10      28.4474         28.4415         28.4296         28.4117         28.3877         28.3576         28.3212         28.2784         28.2290         28.1729    
          28.1098         28.0395         27.9615         27.8756         27.7812         27.6779         27.5649         27.4416         27.3071         27.1600    
          26.9992         26.8226         26.6280         26.4122         26.1707         25.8970         25.5804         25.2016         24.7161         23.8794    
  11      28.4474         28.4415         28.4296         28.4117         28.3877         28.3576         28.3212         28.2784         28.2290         28.1729    
          28.1098         28.0395         27.9615         27.8756         27.7812         27.6779         27.5649         27.4416         27.3071         27.1600    
          26.9991         26.8226         26.6280         26.4122         26.1707         25.8970         25.5804         25.2016         24.7161         23.8794    
  12      28.4474         28.4415         28.4296         28.4117         28.3877         28.3576         28.3212         28.2784         28.2290         28.1729    
          28.1098         28.0395         27.9615         27.8756         27.7812         27.6779         27.5649         27.4416         27.3071         27.1600    
          26.9991         26.8226         26.6280         26.4122         26.1707         25.8970         25.5804         25.2016         24.7161         23.8794    
  13      28.4474         28.4415         28.4296         28.4117         28.3877         28.3576         28.3212         28.2784         28.2290         28.1729    
          28.1098         28.0395         27.9615         27.8756         27.7812         27.6779         27.5649         27.4416         27.3071         27.1600    
          26.9991         26.8226         26.6280         26.4122         26.1707         25.8970         25.5804         25.2016         24.7161         23.8794    
  14      28.4474         28.4415         28.4296         28.4117         28.3877         28.3576         28.3212         28.2784         28.2290         28.1729    
          28.1098         28.0395         27.9615         27.8756         27.7812         27.6779         27.5649         27.4416         27.3071         27.1600    
          26.9991         26.8226         26.6280         26.4122         26.1707         25.8970         25.5804         25.2016         24.7161         23.8794    
  15      28.4474         28.4415         28.4296         28.4117         28.3877         28.3576         28.3212         28.2784         28.2290         28.1729    
          28.1098         28.0395         27.9615         27.8756         27.7812         27.6779         27.5649         27.4416         27.3071         27.1600    
          26.9991         26.8226         26.6280         26.4122         26.1707         25.8970         25.5804         25.2016         24.7161         23.8794    
  16      28.4474         28.4415         28.4296         28.4117         28.3877         28.3576         28.3212         28.2784         28.2290         28.1729    
          28.1098         28.0395         27.9615         27.8756         27.7812         27.6779         27.5649         27.4416         27.3071         27.1600    
          26.9991         26.8226         26.6280         26.4122         26.1707         25.8970         25.5804         25.2016         24.7161         23.8794    
  17      28.4474         28.4415         28.4296         28.4117         28.3877         28.3576         28.3212         28.2784         28.2290         28.1729    
          28.1098         28.0395         27.9615         27.8756         27.7812         27.6779         27.5649         27.4416         27.3071         27.1600    
          26.9991         26.8226         26.6280         26.4122         26.1707         25.8970         25.5804         25.2016         24.7161         23.8794    
  18      28.4474         28.4415         28.4296         28.4117         28.3877         28.3576         28.3212         28.2784         28.2290         28.1729    
          28.1098         28.0395         27.9615         27.8756         27.7812         27.6779         27.5649         27.4416         27.3071         27.1600    
          26.9991         26.8226         26.6280         26.4122         26.1707         25.8970         25.5804         25.2016         24.7161         23.8794    
  19      28.4474         28.4415         28.4296         28.4117         28.3877         28.3576         28.3212         28.2784         28.2290         28.1729    
          28.1098         28.0395         27.9615         27.8756         27.7812         27.6779         27.5649         27.4416         27.3071         27.1600    
          26.9991         26.8226         26.6280         26.4122         26.1707         25.8970         25.5804         25.2016         24.7161         23.8794    
  20      28.4474         28.4415         28.4296         28.4117         28.3877         28.3576         28.3212         28.2784         28.2290         28.1729    
          28.1098         28.0395         27.9615         27.8756         27.7812         27.6779         27.5649         27.4416         27.3071         27.1600    
          26.9991         26.8226         26.6280         26.4122         26.1707         25.8970         25.5804         25.2016         24.7161         23.8794    
  21      28.4474         28.4415         28.4296         28.4117         28.3877         28.3576         28.3212         28.2784         28.2290         28.1729    
          28.1098         28.0395         27.9615         27.8756         27.7812         27.6779         27.5649         27.4416         27.3071         27.1600    
          26.9991         26.8226         26.6280         26.4122         26.1707         25.8970         25.5804         25.2016         24.7161         23.8794    
  22      28.4474         28.4415         28.4296         28.4117         28.3877         28.3576         28.3212         28.2784         28.2290         28.1729    
          28.1098         28.0395         27.9615         27.8756         27.7812         27.6779         27.5649         27.4416         27.3071         27.1600    
          26.9991         26.8226         26.6280         26.4122         26.1707         25.8970         25.5804         25.2016         24.7161         23.8794    
  23      28.4474         28.4415         28.4296         28.4117         28.3877         28.3576         28.3212         28.2784         28.2290         28.1729    
          28.1098         28.0395         27.9615         27.8756         27.7812         27.6779         27.5649         27.4416         27.3071         27.1600    
          26.9991         26.8226         26.6280         26.4122         26.1707         25.8970         25.5804         25.2015         24.7161         23.8794    
  24      28.4474         28.4415         28.4296         28.4117         28.3877         28.3576         28.3212         28.2784         28.2290         28.1729    
          28.1098         28.0395         27.9615         27.8756         27.7812         27.6779         27.5649         27.4416         27.3071         27.1600    
          26.9991         26.8226         26.6280         26.4122         26.1707         25.8970         25.5804         25.2015         24.7161         23.8794    
  25      28.4474         28.4415         28.4296         28.4117         28.3877         28.3576         28.3212         28.2784         28.2290         28.1729    
          28.1098         28.0395         27.9615         27.8756         27.7812         27.6779         27.5649         27.4416         27.3071         27.1600    
          26.9991         26.8226         26.6280         26.4122         26.1707         25.8970         25.5804         25.2015         24.7161         23.8794    
  26      28.4474         28.4415         28.4296         28.4117         28.3877         28.3576         28.3212         28.2784         28.2290         28.1729    
          28.1098         28.0395         27.9615         27.8756         27.7812         27.6779         27.5649         27.4416         27.3071         27.1600    
          26.9991         26.8226         26.6280         26.4122         26.1707         25.8970         25.5804         25.2015         24.7161         23.8794    
  27      28.4474         28.4415         28.4296         28.4117         28.3877         28.3576         28.3212         28.2784         28.2290         28.1729    
          28.1098         28.0395         27.9615         27.8756         27.7812         27.6779         27.5649         27.4416         27.3071         27.1600    
          26.9991         26.8226         26.6280         26.4122         26.1707         25.8970         25.5804         25.2015         24.7161         23.8794    
  28      28.4474         28.4415         28.4296         28.4117         28.3877         28.3576         28.3212         28.2784         28.2290         28.1729    
          28.1098         28.0395         27.9615         27.8756         27.7812         27.6779         27.5649         27.4416         27.3071         27.1600    
          26.9991         26.8226         26.6280         26.4122         26.1707         25.8970         25.5804         25.2015         24.7161         23.8794    
  29      28.4474         28.4415         28.4296         28.4117         28.3877         28.3576         28.3212         28.2784         28.2290         28.1729    
          28.1098         28.0395         27.9615         27.8756         27.7812         27.6779         27.5649         27.4416         27.3071         27.1600    
          26.9991         26.8226         26.6280         26.4122         26.1707         25.8970         25.5804         25.2015         24.7161         23.8794    
  30      28.4474         28.4415         28.4296         28.4117         28.3877         28.3576         28.3212         28.2784         28.2290         28.1729    
          28.1098         28.0395         27.9615         27.8756         27.7812         27.6779         27.5649         27.4416         27.3071         27.1600    
          26.9991         26.8226         26.6280         26.4122         26.1707         25.8970         25.5804         25.2015         24.7161         23.8794    

 HEAD WILL BE SAVED ON UNIT 1019 AT END OF TIME STEP   10, STRESS PERIOD    2


  VOLUME BUDGET FOR ENTIRE MODEL AT END OF TIME STEP   10, STRESS PERIOD   2
  ---------------------------------------------------------------------------------------------------

     CUMULATIVE VOLUME      L**3       RATES FOR THIS TIME STEP      L**3/T          PACKAGE NAME    
     ------------------                 ------------------------                     ----------------

           IN:                                      IN:
           ---                                      ---
              STO-SS =       3.4708E-02                STO-SS =           0.0000     STORAGE         
              STO-SY =          26.0332                STO-SY =           0.0000     STORAGE         
                 RCH =        8819.1752                   RCH =         286.0273     RCHA            
                 CHD =           0.0000                   CHD =           0.0000     CHD             

            TOTAL IN =        8845.2431              TOTAL IN =         286.0273

          OUT:                                     OUT:
          ----                                     ----
              STO-SS =           1.7694                STO-SS =       5.4711E-02     STORAGE         
              STO-SY =        1092.0624                STO-SY =          33.7701     STORAGE         
                 RCH =           0.0000                   RCH =           0.0000     RCHA            
                 CHD =        7751.6379                   CHD =         252.2084     CHD             

           TOTAL OUT =        8845.4697             TOTAL OUT =         286.0332

            IN - OUT =          -0.2266              IN - OUT =      -5.9086E-03

 PERCENT DISCREPANCY =          -0.00     PERCENT DISCREPANCY =          -0.00




         TIME SUMMARY AT END OF TIME STEP   10 IN STRESS PERIOD    2
                    SECONDS     MINUTES      HOURS       DAYS        YEARS
                    -----------------------------------------------------------
   TIME STEP LENGTH 2.59200E+05  4320.0      72.000      3.0000     8.21355E-03
 STRESS PERIOD TIME 2.59200E+06  43200.      720.00      30.000     8.21355E-02
         TOTAL TIME 2.67840E+06  44640.      744.00      31.000     8.48734E-02

 OUTPUT CONTROL FOR STRESS PERIOD 3 IS REPEATED USING SETTINGS FROM A PREVIOUS STRESS PERIOD.


 STRESS PERIOD 3 IS TRANSIENT


                 RECHARGE =  0.2465750E-02
 UBDSV1 SAVING           STO-SS ON UNIT   1018 AT TIME STEP      1, STRESS PERIOD      3
 UBDSV1 SAVING           STO-SY ON UNIT   1018 AT TIME STEP      1, STRESS PERIOD      3
 UBDSV1 SAVING     FLOW-JA-FACE ON UNIT   1018 AT TIME STEP      1, STRESS PERIOD      3
 UBDSV06 SAVING              RCH IN MODEL TEST_TRANS       PACKAGE TEST_TRANS      CONNECTED TO MODEL TEST_TRANS       PACKAGE RCHA             ON UNIT   1018 AT TIME STEP      1, STRESS PERIOD      3
 UBDSV06 SAVING              CHD IN MODEL TEST_TRANS       PACKAGE TEST_TRANS      CONNECTED TO MODEL TEST_TRANS       PACKAGE CHD              ON UNIT   1018 AT TIME STEP      1, STRESS PERIOD      3
1
  HEAD IN LAYER   1 AT END OF TIME STEP   1 IN STRESS PERIOD    3
  ---------------------------------------------------------------------------

                1               2               3               4               5               6               7               8               9              10
               11              12              13              14              15              16              17              18              19              20
               21              22              23              24              25              26              27              28              29              30
 ................................................................................................................................................................
   1      28.4425         28.4365         28.4246         28.4067         28.3827         28.3525         28.3161         28.2733         28.2238         28.1677    
          28.1045         28.0340         27.9560         27.8699         27.7754         27.6719         27.5588         27.4353         27.3006         27.1533    
          26.9922         26.8155         26.6207         26.4046         26.1630         25.8892         25.5727         25.1943         24.7105         23.8851    
   2      28.4425         28.4365         28.4246         28.4067         28.3827         28.3525         28.3161         28.2733         28.2238         28.1677    
          28.1045         28.0340         27.9560         27.8699         27.7754         27.6719         27.5588         27.4353         27.3006         27.1533    
          26.9922         26.8155         26.6207         26.4046         26.1630         25.8892         25.5727         25.1944         24.7105         23.8851    
   3      28.4425         28.4365         28.4246         28.4067         28.3827         28.3525         28.3161         28.2733         28.2238         28.1677    
          28.1045         28.0340         27.9560         27.8699         27.7754         27.6719         27.5588         27.4353         27.3006         27.1533    
          26.9922         26.8155         26.6207         26.4046         26.1630         25.8892         25.5727         25.1944         24.7105         23.8851    
   4      28.4425         28.4365         28.4246         28.4067         28.3827         28.3525         28.3161         28.2733         28.2238         28.1677    
          28.1045         28.0340         27.9560         27.8699         27.7754         27.6719         27.5588         27.4353         27.3006         27.1533    
          26.9922         26.8155         26.6207         26.4046         26.1630         25.8892         25.5727         25.1944         24.7105         23.8851    
   5      28.4425         28.4365         28.4246         28.4067         28.3827         28.3525         28.3161         28.2733         28.2238         28.1677    
          28.1045         28.0340         27.9560         27.8699         27.7754         27.6719         27.5588         27.4353         27.3006         27.1533    
          26.9922         26.8155         26.6207         26.4046         26.1630         25.8892         25.5727         25.1944         24.7105         23.8851    
   6      28.4425         28.4365         28.4246         28.4067         28.3827         28.3525         28.3161         28.2733         28.2238         28.1677    
          28.1045         28.0340         27.9560         27.8699         27.7754         27.6719         27.5588         27.4353         27.3006         27.1533    
          26.9922         26.8155         26.6207         26.4046         26.1630         25.8892         25.5727         25.1944         24.7105         23.8851    
   7      28.4425         28.4365         28.4246         28.4067         28.3827         28.3525         28.3161         28.2733         28.2238         28.1677    
          28.1045         28.0340         27.9560         27.8699         27.7754         27.6719         27.5588         27.4353         27.3006         27.1533    
          26.9922         26.8155         26.6207         26.4046         26.1630         25.8892         25.5727         25.1944         24.7105         23.8851    
   8      28.4425         28.4365         28.4246         28.4067         28.3827         28.3525         28.3161         28.2733         28.2238         28.1677    
          28.1045         28.0340         27.9560         27.8699         27.7754         27.6719         27.5588         27.4353         27.3006         27.1533    
          26.9922         26.8155         26.6207         26.4046         26.1630         25.8892         25.5727         25.1944         24.7105         23.8851    
   9      28.4425         28.4365         28.4246         28.4067         28.3827         28.3525         28.3161         28.2733         28.2238         28.1677    
          28.1045         28.0340         27.9560         27.8699         27.7754         27.6719         27.5588         27.4353         27.3006         27.1533    
          26.9922         26.8155         26.6207         26.4046         26.1630         25.8892         25.5727         25.1944         24.7105         23.8851    
  10      28.4425         28.4365         28.4246         28.4067         28.3827         28.3525         28.3161         28.2733         28.2238         28.1677    
          28.1045         28.0340         27.9559         27.8699         27.7754         27.6719         27.5588         27.4353         27.3006         27.1533    
          26.9922         26.8155         26.6206         26.4046         26.1630         25.8892         25.5727         25.1944         24.7105         23.8851    
  11      28.4425         28.4365         28.4246         28.4067         28.3827         28.3525         28.3161         28.2733         28.2238         28.1677    
          28.1045         28.0340         27.9559         27.8699         27.7754         27.6719         27.5588         27.4353         27.3006         27.1533    
          26.9922         26.8155         26.6206         26.4046         26.1630         25.8892         25.5727         25.1944         24.7105         23.8851    
  12      28.4425         28.4365         28.4246         28.4067         28.3827         28.3525         28.3161         28.2733         28.2238         28.1677    
          28.1045         28.0340         27.9559         27.8699         27.7754         27.6719         27.5588         27.4353         27.3006         27.1533    
          26.9922         26.8155         26.6206         26.4046         26.1630         25.8892         25.5727         25.1944         24.7105         23.8851    
  13      28.4425         28.4365         28.4246         28.4067         28.3827         28.3525         28.3161         28.2733         28.2238         28.1677    
          28.1045         28.0340         27.9559         27.8699         27.7754         27.6719         27.5588         27.4353         27.3006         27.1533    
          26.9922         26.8155         26.6206         26.4046         26.1630         25.8892         25.5727         25.1943         24.7105         23.8851    
  14      28.4425         28.4365         28.4246         28.4067         28.3827         28.3525         28.3161         28.2733         28.2238         28.1677    
          28.1045         28.0340         27.9559         27.8699         27.7754         27.6719         27.5588         27.4353         27.3006         27.1533    
          26.9922         26.8155         26.6206         26.4046         26.1630         25.8892         25.5727         25.1943         24.7105         23.8851    
  15      28.4425         28.4365         28.4246         28.4067         28.3827         28.3525         28.3161         28.2733         28.2238         28.1677    
          28.1045         28.0340         27.9559         27.8699         27.7754         27.6719         27.5588         27.4353         27.3006         27.1533    
          26.9922         26.8155         26.6206         26.4046         26.1630         25.8892         25.5727         25.1943         24.7105         23.8851    
  16      28.4425         28.4365         28.4246         28.4067         28.3827         28.3525         28.3161         28.2733         28.2238         28.1677    
          28.1045         28.0340         27.9559         27.8699         27.7754         27.6719         27.5588         27.4353         27.3006         27.1533    
          26.9922         26.8155         26.6206         26.4046         26.1630         25.8892         25.5727         25.1943         24.7105         23.8851    
  17      28.4425         28.4365         28.4246         28.4067         28.3827         28.3525         28.3161         28.2733         28.2238         28.1677    
          28.1045         28.0340         27.9559         27.8699         27.7754         27.6719         27.5588         27.4353         27.3006         27.1533    
          26.9922         26.8155         26.6206         26.4046         26.1630         25.8892         25.5727         25.1943         24.7105         23.8851    
  18      28.4425         28.4365         28.4246         28.4067         28.3827         28.3525         28.3161         28.2733         28.2238         28.1677    
          28.1045         28.0340         27.9559         27.8699         27.7754         27.6719         27.5588         27.4353         27.3006         27.1533    
          26.9922         26.8155         26.6206         26.4046         26.1630         25.8892         25.5727         25.1943         24.7105         23.8851    
  19      28.4425         28.4365         28.4246         28.4067         28.3827         28.3525         28.3161         28.2733         28.2238         28.1677    
          28.1045         28.0340         27.9559         27.8699         27.7754         27.6719         27.5588         27.4353         27.3006         27.1533    
          26.9922         26.8155         26.6206         26.4046         26.1630         25.8892         25.5727         25.1943         24.7105         23.8851    
  20      28.4425         28.4365         28.4246         28.4067         28.3827         28.3525         28.3161         28.2733         28.2238         28.1677    
          28.1045         28.0340         27.9559         27.8699         27.7754         27.6719         27.5588         27.4353         27.3006         27.1533    
          26.9922         26.8155         26.6206         26.4046         26.1630         25.8892         25.5727         25.1943         24.7105         23.8851    
  21      28.4425         28.4365         28.4246         28.4067         28.3827         28.3525         28.3161         28.2732         28.2238         28.1677    
          28.1045         28.0340         27.9559         27.8699         27.7754         27.6719         27.5588         27.4353         27.3006         27.1533    
          26.9922         26.8155         26.6206         26.4046         26.1630         25.8892         25.5727         25.1943         24.7105         23.8851    
  22      28.4425         28.4365         28.4246         28.4067         28.3827         28.3525         28.3161         28.2732         28.2238         28.1677    
[...]
 UBDSV06 SAVING              RCH IN MODEL TEST_TRANS       PACKAGE TEST_TRANS      CONNECTED TO MODEL TEST_TRANS       PACKAGE RCHA             ON UNIT   1018 AT TIME STEP      8, STRESS PERIOD     36
 UBDSV06 SAVING              CHD IN MODEL TEST_TRANS       PACKAGE TEST_TRANS      CONNECTED TO MODEL TEST_TRANS       PACKAGE CHD              ON UNIT   1018 AT TIME STEP      8, STRESS PERIOD     36

 HEAD WILL BE SAVED ON UNIT 1019 AT END OF TIME STEP    8, STRESS PERIOD   36
 UBDSV1 SAVING           STO-SS ON UNIT   1018 AT TIME STEP      9, STRESS PERIOD     36
 UBDSV1 SAVING           STO-SY ON UNIT   1018 AT TIME STEP      9, STRESS PERIOD     36
 UBDSV1 SAVING     FLOW-JA-FACE ON UNIT   1018 AT TIME STEP      9, STRESS PERIOD     36
 UBDSV06 SAVING              RCH IN MODEL TEST_TRANS       PACKAGE TEST_TRANS      CONNECTED TO MODEL TEST_TRANS       PACKAGE RCHA             ON UNIT   1018 AT TIME STEP      9, STRESS PERIOD     36
 UBDSV06 SAVING              CHD IN MODEL TEST_TRANS       PACKAGE TEST_TRANS      CONNECTED TO MODEL TEST_TRANS       PACKAGE CHD              ON UNIT   1018 AT TIME STEP      9, STRESS PERIOD     36

 HEAD WILL BE SAVED ON UNIT 1019 AT END OF TIME STEP    9, STRESS PERIOD   36
 UBDSV1 SAVING           STO-SS ON UNIT   1018 AT TIME STEP     10, STRESS PERIOD     36
 UBDSV1 SAVING           STO-SY ON UNIT   1018 AT TIME STEP     10, STRESS PERIOD     36
 UBDSV1 SAVING     FLOW-JA-FACE ON UNIT   1018 AT TIME STEP     10, STRESS PERIOD     36
 UBDSV06 SAVING              RCH IN MODEL TEST_TRANS       PACKAGE TEST_TRANS      CONNECTED TO MODEL TEST_TRANS       PACKAGE RCHA             ON UNIT   1018 AT TIME STEP     10, STRESS PERIOD     36
 UBDSV06 SAVING              CHD IN MODEL TEST_TRANS       PACKAGE TEST_TRANS      CONNECTED TO MODEL TEST_TRANS       PACKAGE CHD              ON UNIT   1018 AT TIME STEP     10, STRESS PERIOD     36
1
  HEAD IN LAYER   1 AT END OF TIME STEP  10 IN STRESS PERIOD   36
  ---------------------------------------------------------------------------

                1               2               3               4               5               6               7               8               9              10
               11              12              13              14              15              16              17              18              19              20
               21              22              23              24              25              26              27              28              29              30
 ................................................................................................................................................................
   1      27.9186         27.9140         27.9048         27.8910         27.8725         27.8492         27.8209         27.7877         27.7493         27.7055    
          27.6562         27.6010         27.5396         27.4718         27.3970         27.3148         27.2246         27.1257         27.0174         26.8987    
          26.7683         26.6249         26.4667         26.2913         26.0956         25.8753         25.6239         25.3313         24.9785         24.5204    
   2      27.9186         27.9140         27.9048         27.8910         27.8725         27.8492         27.8209         27.7877         27.7493         27.7055    
          27.6562         27.6010         27.5396         27.4718         27.3970         27.3148         27.2246         27.1257         27.0174         26.8987    
          26.7683         26.6249         26.4667         26.2913         26.0956         25.8753         25.6239         25.3313         24.9785         24.5204    
   3      27.9186         27.9140         27.9048         27.8910         27.8725         27.8492         27.8209         27.7877         27.7493         27.7055    
          27.6562         27.6010         27.5396         27.4718         27.3970         27.3148         27.2246         27.1257         27.0174         26.8987    
          26.7683         26.6249         26.4667         26.2913         26.0956         25.8753         25.6239         25.3313         24.9785         24.5204    
   4      27.9186         27.9140         27.9048         27.8910         27.8725         27.8492         27.8209         27.7877         27.7493         27.7055    
          27.6562         27.6010         27.5396         27.4718         27.3970         27.3148         27.2246         27.1257         27.0174         26.8987    
          26.7683         26.6249         26.4667         26.2913         26.0956         25.8753         25.6239         25.3313         24.9785         24.5204    
   5      27.9186         27.9140         27.9048         27.8910         27.8725         27.8492         27.8209         27.7877         27.7493         27.7055    
          27.6562         27.6010         27.5396         27.4718         27.3970         27.3148         27.2246         27.1257         27.0174         26.8987    
          26.7683         26.6249         26.4667         26.2913         26.0956         25.8753         25.6239         25.3313         24.9785         24.5204    
   6      27.9186         27.9140         27.9048         27.8910         27.8725         27.8492         27.8209         27.7877         27.7493         27.7055    
          27.6562         27.6010         27.5396         27.4718         27.3970         27.3148         27.2246         27.1257         27.0174         26.8987    
          26.7683         26.6249         26.4667         26.2913         26.0956         25.8753         25.6239         25.3313         24.9785         24.5204    
   7      27.9186         27.9140         27.9048         27.8910         27.8725         27.8492         27.8209         27.7877         27.7493         27.7055    
          27.6562         27.6010         27.5396         27.4718         27.3970         27.3148         27.2246         27.1257         27.0174         26.8987    
          26.7683         26.6249         26.4667         26.2913         26.0956         25.8753         25.6239         25.3313         24.9785         24.5204    
   8      27.9186         27.9140         27.9048         27.8910         27.8725         27.8492         27.8209         27.7877         27.7493         27.7055    
          27.6562         27.6010         27.5396         27.4718         27.3970         27.3148         27.2246         27.1257         27.0174         26.8987    
          26.7683         26.6249         26.4667         26.2913         26.0956         25.8753         25.6239         25.3313         24.9785         24.5204    
   9      27.9186         27.9140         27.9048         27.8910         27.8725         27.8492         27.8209         27.7877         27.7493         27.7055    
          27.6562         27.6010         27.5396         27.4718         27.3970         27.3148         27.2246         27.1257         27.0174         26.8987    
          26.7683         26.6249         26.4667         26.2913         26.0956         25.8753         25.6239         25.3313         24.9785         24.5204    
  10      27.9186         27.9140         27.9048         27.8910         27.8725         27.8492         27.8209         27.7877         27.7493         27.7055    
          27.6562         27.6010         27.5396         27.4718         27.3970         27.3148         27.2246         27.1257         27.0174         26.8987    
          26.7683         26.6249         26.4667         26.2913         26.0956         25.8753         25.6239         25.3313         24.9785         24.5204    
  11      27.9186         27.9140         27.9048         27.8910         27.8725         27.8492         27.8209         27.7877         27.7493         27.7055    
          27.6562         27.6010         27.5396         27.4718         27.3970         27.3148         27.2246         27.1257         27.0174         26.8987    
          26.7683         26.6249         26.4667         26.2913         26.0956         25.8753         25.6239         25.3313         24.9785         24.5204    
  12      27.9186         27.9140         27.9048         27.8910         27.8725         27.8492         27.8209         27.7877         27.7493         27.7055    
          27.6562         27.6010         27.5396         27.4718         27.3970         27.3148         27.2246         27.1257         27.0174         26.8987    
          26.7683         26.6249         26.4667         26.2913         26.0956         25.8753         25.6239         25.3313         24.9785         24.5204    
  13      27.9186         27.9140         27.9048         27.8910         27.8725         27.8492         27.8209         27.7877         27.7493         27.7055    
          27.6562         27.6010         27.5396         27.4718         27.3970         27.3148         27.2246         27.1257         27.0174         26.8987    
          26.7683         26.6249         26.4667         26.2913         26.0956         25.8753         25.6239         25.3313         24.9785         24.5204    
  14      27.9186         27.9140         27.9048         27.8910         27.8725         27.8492         27.8209         27.7877         27.7493         27.7055    
          27.6562         27.6010         27.5396         27.4718         27.3970         27.3148         27.2246         27.1257         27.0174         26.8987    
          26.7683         26.6249         26.4667         26.2913         26.0956         25.8753         25.6239         25.3313         24.9785         24.5204    
  15      27.9186         27.9140         27.9048         27.8910         27.8725         27.8492         27.8209         27.7877         27.7493         27.7055    
          27.6562         27.6010         27.5396         27.4718         27.3970         27.3148         27.2246         27.1257         27.0174         26.8987    
          26.7683         26.6249         26.4667         26.2913         26.0956         25.8753         25.6239         25.3313         24.9785         24.5204    
  16      27.9186         27.9140         27.9048         27.8910         27.8725         27.8492         27.8209         27.7877         27.7493         27.7055    
          27.6562         27.6010         27.5396         27.4718         27.3970         27.3148         27.2246         27.1257         27.0174         26.8987    
          26.7683         26.6249         26.4667         26.2913         26.0956         25.8753         25.6239         25.3313         24.9785         24.5204    
  17      27.9186         27.9140         27.9048         27.8910         27.8725         27.8492         27.8209         27.7877         27.7493         27.7055    
          27.6562         27.6010         27.5396         27.4718         27.3970         27.3148         27.2246         27.1257         27.0174         26.8987    
          26.7683         26.6249         26.4667         26.2913         26.0956         25.8753         25.6239         25.3313         24.9785         24.5204    
  18      27.9186         27.9140         27.9048         27.8910         27.8725         27.8492         27.8209         27.7877         27.7493         27.7055    
          27.6562         27.6010         27.5396         27.4718         27.3970         27.3148         27.2246         27.1257         27.0174         26.8987    
          26.7683         26.6249         26.4667         26.2913         26.0956         25.8753         25.6239         25.3313         24.9785         24.5204    
  19      27.9186         27.9140         27.9048         27.8910         27.8725         27.8492         27.8209         27.7877         27.7493         27.7055    
          27.6562         27.6010         27.5396         27.4718         27.3970         27.3148         27.2246         27.1257         27.0174         26.8987    
          26.7683         26.6249         26.4667         26.2913         26.0956         25.8753         25.6239         25.3313         24.9785         24.5204    
  20      27.9186         27.9140         27.9048         27.8910         27.8725         27.8492         27.8209         27.7877         27.7493         27.7055    
          27.6562         27.6010         27.5396         27.4718         27.3970         27.3148         27.2246         27.1257         27.0174         26.8987    
          26.7683         26.6249         26.4667         26.2913         26.0956         25.8753         25.6239         25.3313         24.9785         24.5204    
  21      27.9186         27.9140         27.9048         27.8910         27.8725         27.8492         27.8209         27.7877         27.7493         27.7055    
          27.6562         27.6010         27.5396         27.4718         27.3970         27.3148         27.2246         27.1257         27.0174         26.8987    
          26.7683         26.6249         26.4667         26.2913         26.0956         25.8753         25.6239         25.3313         24.9785         24.5204    
  22      27.9186         27.9140         27.9048         27.8910         27.8725         27.8492         27.8209         27.7877         27.7493         27.7055    
          27.6562         27.6010         27.5396         27.4718         27.3970         27.3148         27.2246         27.1257         27.0174         26.8987    
          26.7683         26.6249         26.4667         26.2913         26.0956         25.8753         25.6239         25.3313         24.9785         24.5204    
  23      27.9186         27.9140         27.9048         27.8910         27.8725         27.8492         27.8209         27.7877         27.7493         27.7055    
          27.6562         27.6010         27.5396         27.4718         27.3970         27.3148         27.2246         27.1257         27.0174         26.8987    
          26.7683         26.6249         26.4667         26.2913         26.0956         25.8753         25.6239         25.3313         24.9785         24.5204    
  24      27.9186         27.9140         27.9048         27.8910         27.8725         27.8492         27.8209         27.7877         27.7493         27.7055    
          27.6562         27.6010         27.5396         27.4718         27.3970         27.3148         27.2246         27.1257         27.0174         26.8987    
          26.7683         26.6249         26.4667         26.2913         26.0956         25.8753         25.6239         25.3313         24.9785         24.5204    
  25      27.9186         27.9140         27.9048         27.8910         27.8725         27.8492         27.8209         27.7877         27.7493         27.7055    
          27.6562         27.6010         27.5396         27.4718         27.3970         27.3148         27.2246         27.1257         27.0174         26.8987    
          26.7683         26.6249         26.4667         26.2913         26.0956         25.8753         25.6239         25.3313         24.9785         24.5204    
  26      27.9186         27.9140         27.9048         27.8910         27.8725         27.8492         27.8209         27.7877         27.7493         27.7055    
          27.6562         27.6010         27.5396         27.4718         27.3970         27.3148         27.2246         27.1257         27.0174         26.8987    
          26.7683         26.6249         26.4667         26.2913         26.0956         25.8753         25.6239         25.3313         24.9785         24.5204    
  27      27.9186         27.9140         27.9048         27.8910         27.8725         27.8492         27.8209         27.7877         27.7493         27.7055    
          27.6562         27.6010         27.5396         27.4718         27.3970         27.3148         27.2246         27.1257         27.0174         26.8987    
          26.7683         26.6249         26.4667         26.2913         26.0956         25.8753         25.6239         25.3313         24.9785         24.5204    
  28      27.9186         27.9140         27.9048         27.8910         27.8725         27.8492         27.8209         27.7877         27.7493         27.7055    
          27.6562         27.6010         27.5396         27.4718         27.3970         27.3148         27.2246         27.1257         27.0174         26.8987    
          26.7683         26.6249         26.4667         26.2913         26.0956         25.8753         25.6239         25.3313         24.9785         24.5204    
  29      27.9186         27.9140         27.9048         27.8910         27.8725         27.8492         27.8209         27.7877         27.7493         27.7055    
          27.6562         27.6010         27.5396         27.4718         27.3970         27.3148         27.2246         27.1257         27.0174         26.8987    
          26.7683         26.6249         26.4667         26.2913         26.0956         25.8753         25.6239         25.3313         24.9785         24.5204    
  30      27.9186         27.9140         27.9048         27.8910         27.8725         27.8492         27.8209         27.7877         27.7493         27.7055    
          27.6562         27.6010         27.5396         27.4718         27.3970         27.3148         27.2246         27.1257         27.0174         26.8987    
          26.7683         26.6249         26.4667         26.2913         26.0956         25.8753         25.6239         25.3313         24.9785         24.5204    

 HEAD WILL BE SAVED ON UNIT 1019 AT END OF TIME STEP   10, STRESS PERIOD   36


  VOLUME BUDGET FOR ENTIRE MODEL AT END OF TIME STEP   10, STRESS PERIOD  36
  ---------------------------------------------------------------------------------------------------

     CUMULATIVE VOLUME      L**3       RATES FOR THIS TIME STEP      L**3/T          PACKAGE NAME    
     ------------------                 ------------------------                     ----------------

           IN:                                      IN:
           ---                                      ---
              STO-SS =          56.1260                STO-SS =       1.8682E-03     STORAGE         
              STO-SY =       36208.8915                STO-SY =           1.3213     STORAGE         
                 RCH =      172212.4024                   RCH =         238.3565     RCHA            
                 CHD =        2029.0190                   CHD =           0.0000     CHD             

            TOTAL IN =      210506.4389              TOTAL IN =         239.6797

          OUT:                                     OUT:
          ----                                     ----
              STO-SS =          48.9035                STO-SS =       5.7318E-02     STORAGE         
              STO-SY =       31810.3462                STO-SY =          35.4565     STORAGE         
                 RCH =           0.0000                   RCH =           0.0000     RCHA            
                 CHD =      178646.7142                   CHD =         204.1664     CHD             

           TOTAL OUT =      210505.9638             TOTAL OUT =         239.6802

            IN - OUT =           0.4750              IN - OUT =      -5.2586E-04

 PERCENT DISCREPANCY =           0.00     PERCENT DISCREPANCY =          -0.00




         TIME SUMMARY AT END OF TIME STEP   10 IN STRESS PERIOD   36
                    SECONDS     MINUTES      HOURS       DAYS        YEARS
                    -----------------------------------------------------------
   TIME STEP LENGTH 2.59200E+05  4320.0      72.000      3.0000     8.21355E-03
 STRESS PERIOD TIME 2.59200E+06  43200.      720.00      30.000     8.21355E-02
         TOTAL TIME 9.08064E+07 1.51344E+06  25224.      1051.0      2.8775    
