                                   MODFLOW 6
                U.S. GEOLOGICAL SURVEY MODULAR HYDROLOGIC MODEL
                          GROUNDWATER FLOW MODEL (GWF)
                            VERSION 6.0.4 03/13/2019

   MODFLOW 6 compiled Mar 21 2019 15:37:31 with IFORT compiler (ver. 19.0.0)

This software has been approved for release by the U.S. Geological 
Survey (USGS). Although the software has been subjected to rigorous 
review, the USGS reserves the right to update the software as needed 
pursuant to further analysis and review. No warranty, expressed or 
implied, is made by the USGS or the U.S. Government as to the 
functionality of the software and related material nor shall the 
fact of release constitute any such warranty. Furthermore, the 
software is released on condition that neither the USGS nor the U.S. 
Government shall be held liable for any damages resulting from its 
authorized or unauthorized use. Also refer to the USGS Water 
Resources Software User Rights Notice for complete use, copyright, 
and distribution information.


MODFLOW was compiled using uniform precision.
Precision of REAL variables: 15


 OPENED test_trans.dis
 FILE TYPE:DIS6                   UNIT 1005   STATUS:OLD                 
 FORMAT:FORMATTED              ACCESS:SEQUENTIAL          
 ACTION:READ                


 OPENED test_trans.ic
 FILE TYPE:IC6                    UNIT 1006   STATUS:OLD                 
 FORMAT:FORMATTED              ACCESS:SEQUENTIAL          
 ACTION:READ                


 OPENED test_trans.npf
 FILE TYPE:NPF6                   UNIT 1007   STATUS:OLD                 
 FORMAT:FORMATTED              ACCESS:SEQUENTIAL          
 ACTION:READ                


 OPENED test_trans.oc
 FILE TYPE:OC6                    UNIT 1008   STATUS:OLD                 
 FORMAT:FORMATTED              ACCESS:SEQUENTIAL          
 ACTION:READ                


 OPENED test_trans.sto
 FILE TYPE:STO6                   UNIT 1009   STATUS:OLD                 
 FORMAT:FORMATTED              ACCESS:SEQUENTIAL          
 ACTION:READ                


 OPENED test_trans.rcha
 FILE TYPE:RCH6                   UNIT 1010   STATUS:OLD                 
 FORMAT:FORMATTED              ACCESS:SEQUENTIAL          
 ACTION:READ                


 OPENED test_trans.chd
 FILE TYPE:CHD6                   UNIT 1011   STATUS:OLD                 
 FORMAT:FORMATTED              ACCESS:SEQUENTIAL          
 ACTION:READ                


 OPENED test_trans.obs
 FILE TYPE:OBS6                   UNIT 1012   STATUS:OLD                 
 FORMAT:FORMATTED              ACCESS:SEQUENTIAL          
 ACTION:READ                

 NAMEFILE OPTIONS:
    FLOWS WILL BE SAVED TO BUDGET FILE SPECIFIED IN OUTPUT CONTROL

 DIS -- STRUCTURED GRID DISCRETIZATION PACKAGE, VERSION 2 : 3/27/2014 - INPUT READ FROM UNIT 1005


 PROCESSING DISCRETIZATION OPTIONS
 END OF DISCRETIZATION OPTIONS
 MODEL LENGTH UNIT IS UNDEFINED
 PROCESSING DISCRETIZATION DIMENSIONS
    NLAY =       1
    NROW =      30
    NCOL =      30
 END OF DISCRETIZATION DIMENSIONS
 PROCESSING GRIDDATA

                     DELR =   10.00000    

                     DELC =   10.00000    

 TOP ELEVATION OF LAYER 1 =   30.00000    

   MODEL LAYER BOTTOM EL. =   23.00000    

                  IDOMAIN = 1
 END PROCESSING GRIDDATA

 NPF -- NODE PROPERTY FLOW PACKAGE, VERSION 1, 3/30/2015 INPUT READ FROM UNIT 1007


 PROCESSING NPF OPTIONS
    CELL-BY-CELL FLOW INFORMATION WILL BE SAVED TO BINARY FILE WHENEVER ICBCFL IS NOT ZERO.
 END OF NPF OPTIONS

 RCH   -- RCH PACKAGE, VERSION 8, 2/22/2014 INPUT READ FROM UNIT 1010

 PROCESSING RCH OPTIONS
    RECHARGE INPUT WILL BE READ AS ARRAY(S).
 END OF RCH OPTIONS

 CHD   -- CHD PACKAGE, VERSION 8, 2/22/2014 INPUT READ FROM UNIT 1011

 PROCESSING CHD OPTIONS
 END OF CHD OPTIONS

 PROCESSING CHD DIMENSIONS
    MAXBOUND =      30
 END OF CHD DIMENSIONS

 IC -- INITIAL CONDITIONS PACKAGE, VERSION 8, 3/28/2015 INPUT READ FROM UNIT 1006
 PROCESSING GRIDDATA

     INITIAL HEAD =   25.00000    
 END PROCESSING GRIDDATA
 PROCESSING GRIDDATA

                ICELLTYPE = 1

                        K =   8.640000    
 K33 not provided.  Assuming K33 = K.
 K22 not provided.  Assuming K22 = K.
 END PROCESSING GRIDDATA

 STO -- STORAGE PACKAGE, VERSION 1, 5/19/2014 INPUT READ FROM UNIT 1009


 PROCESSING STORAGE OPTIONS
    CELL-BY-CELL FLOW INFORMATION WILL BE SAVED TO BINARY FILE WHENEVER ICBCFL IS NOT ZERO.
 END OF STORAGE OPTIONS
 PROCESSING GRIDDATA

                 ICONVERT = 1

         SPECIFIC STORAGE =  0.1000000E-04

           SPECIFIC YIELD =  0.2000000    
 END PROCESSING GRIDDATA

The observation utility is active for "TEST_TRANS"

Processing observation options:

Text output number of digits of precision set to: 10
The PRINT_INPUT option has been specified.


Observations read from file "test_trans.obs":
Name                                      Type                             Time         Location data
----------------------------------------  -------------------------------  -----------  --------------------------
COL 5                                     Continuous HEAD                  All times    "1 16 6"
COL 10                                    Continuous HEAD                  All times    "1 16 11"
COL 20                                    Continuous HEAD                  All times    "1 16 21"
    BINARY GRID INFORMATION WILL BE WRITTEN TO:
      UNIT NUMBER: 1015
      FILE NAME: C:\Users\emmal\Documents\GitHub\TM_Ludovic_Schorpp\codes_tests\notebooks_essais\workspace\test_trans.dis.grb

 OPENED C:\Users\emmal\Documents\GitHub\TM_Ludovic_Schorpp\codes_tests\notebooks_essais\workspace\test_trans.dis.grb
 FILE TYPE:DATA(BINARY)   UNIT 1015   STATUS:REPLACE             
 FORMAT:UNFORMATTED            ACCESS:STREAM              
 ACTION:READWRITE           

      THE LAST TIME STEP WILL BE PRINTED
      THE LAST TIME STEP WILL BE PRINTED
 PROCESSING OC OPTIONS
    BUDGET INFORMATION WILL BE WRITTEN TO:
      UNIT NUMBER: 1016
      FILE NAME: test_trans.cbb

 OPENED test_trans.cbb
 FILE TYPE:DATA(BINARY)   UNIT 1016   STATUS:REPLACE             
 FORMAT:UNFORMATTED            ACCESS:STREAM              
 ACTION:READWRITE           

    HEAD INFORMATION WILL BE WRITTEN TO:
      UNIT NUMBER: 1017
      FILE NAME: test_trans.hds

 OPENED test_trans.hds
 FILE TYPE:DATA(BINARY)   UNIT 1017   STATUS:REPLACE             
 FORMAT:UNFORMATTED            ACCESS:STREAM              
 ACTION:READWRITE           

 END OF OC OPTIONS

 BEGIN READING OUTPUT CONTROL FOR STRESS PERIOD 1
      ALL TIME STEPS WILL BE SAVED
      ALL TIME STEPS WILL BE SAVED
      THE FIRST TIME STEP WILL BE PRINTED
      THE LAST TIME STEP WILL BE PRINTED
      THE LAST TIME STEP WILL BE PRINTED

 END READING OUTPUT CONTROL FOR STRESS PERIOD 1


 UPDATING STORAGE VALUES
 END UPDATING STORAGE VALUES


 STRESS PERIOD 1 IS STEADY-STATE


                 RECHARGE =  0.2739730E-02
 UBDSV1 SAVING           STO-SS ON UNIT   1016 AT TIME STEP      1, STRESS PERIOD      1
 UBDSV1 SAVING           STO-SY ON UNIT   1016 AT TIME STEP      1, STRESS PERIOD      1
 UBDSV1 SAVING     FLOW-JA-FACE ON UNIT   1016 AT TIME STEP      1, STRESS PERIOD      1
 UBDSV06 SAVING              RCH IN MODEL TEST_TRANS       PACKAGE TEST_TRANS      CONNECTED TO MODEL TEST_TRANS       PACKAGE RCHA             ON UNIT   1016 AT TIME STEP      1, STRESS PERIOD      1
 UBDSV06 SAVING              CHD IN MODEL TEST_TRANS       PACKAGE TEST_TRANS      CONNECTED TO MODEL TEST_TRANS       PACKAGE CHD              ON UNIT   1016 AT TIME STEP      1, STRESS PERIOD      1
1
  HEAD IN LAYER   1 AT END OF TIME STEP   1 IN STRESS PERIOD    1
  ---------------------------------------------------------------------------

            1           2           3           4           5           6           7           8           9          10
           11          12          13          14          15          16          17          18          19          20
           21          22          23          24          25          26          27          28          29          30
 ........................................................................................................................
   1    28.66       28.65       28.64       28.62       28.60       28.57       28.54       28.50       28.45       28.40    
        28.34       28.27       28.20       28.12       28.03       27.94       27.84       27.72       27.60       27.47    
        27.32       27.17       27.00       26.81       26.60       26.38       26.12       25.83       25.50       25.10    
   2    28.66       28.65       28.64       28.62       28.60       28.57       28.54       28.50       28.45       28.40    
        28.34       28.27       28.20       28.12       28.03       27.94       27.84       27.72       27.60       27.47    
        27.32       27.17       27.00       26.81       26.60       26.38       26.12       25.83       25.50       25.10    
   3    28.66       28.65       28.64       28.62       28.60       28.57       28.54       28.50       28.45       28.40    
        28.34       28.27       28.20       28.12       28.03       27.94       27.84       27.72       27.60       27.47    
        27.32       27.17       27.00       26.81       26.60       26.38       26.12       25.83       25.50       25.10    
   4    28.66       28.65       28.64       28.62       28.60       28.57       28.54       28.50       28.45       28.40    
        28.34       28.27       28.20       28.12       28.03       27.94       27.84       27.72       27.60       27.47    
        27.32       27.17       27.00       26.81       26.60       26.38       26.12       25.83       25.50       25.10    
   5    28.66       28.65       28.64       28.62       28.60       28.57       28.54       28.50       28.45       28.40    
        28.34       28.27       28.20       28.12       28.03       27.94       27.84       27.72       27.60       27.47    
        27.32       27.17       27.00       26.81       26.60       26.38       26.12       25.83       25.50       25.10    
   6    28.66       28.65       28.64       28.62       28.60       28.57       28.54       28.50       28.45       28.40    
        28.34       28.27       28.20       28.12       28.03       27.94       27.84       27.72       27.60       27.47    
        27.32       27.17       27.00       26.81       26.60       26.38       26.12       25.83       25.50       25.10    
   7    28.66       28.65       28.64       28.62       28.60       28.57       28.54       28.50       28.45       28.40    
        28.34       28.27       28.20       28.12       28.03       27.94       27.84       27.72       27.60       27.47    
        27.32       27.17       27.00       26.81       26.60       26.38       26.12       25.83       25.50       25.10    
   8    28.66       28.65       28.64       28.62       28.60       28.57       28.54       28.50       28.45       28.40    
        28.34       28.27       28.20       28.12       28.03       27.94       27.84       27.72       27.60       27.47    
        27.32       27.17       27.00       26.81       26.60       26.38       26.12       25.83       25.50       25.10    
   9    28.66       28.65       28.64       28.62       28.60       28.57       28.54       28.50       28.45       28.40    
        28.34       28.27       28.20       28.12       28.03       27.94       27.84       27.72       27.60       27.47    
        27.32       27.17       27.00       26.81       26.60       26.38       26.12       25.83       25.50       25.10    
  10    28.66       28.65       28.64       28.62       28.60       28.57       28.54       28.50       28.45       28.40    
        28.34       28.27       28.20       28.12       28.03       27.94       27.84       27.72       27.60       27.47    
        27.32       27.17       27.00       26.81       26.60       26.38       26.12       25.83       25.50       25.10    
  11    28.66       28.65       28.64       28.62       28.60       28.57       28.54       28.50       28.45       28.40    
        28.34       28.27       28.20       28.12       28.03       27.94       27.84       27.72       27.60       27.47    
        27.32       27.17       27.00       26.81       26.60       26.38       26.12       25.83       25.50       25.10    
  12    28.66       28.65       28.64       28.62       28.60       28.57       28.54       28.50       28.45       28.40    
        28.34       28.27       28.20       28.12       28.03       27.94       27.84       27.72       27.60       27.47    
        27.32       27.17       27.00       26.81       26.60       26.38       26.12       25.83       25.50       25.10    
  13    28.66       28.65       28.64       28.62       28.60       28.57       28.54       28.50       28.45       28.40    
        28.34       28.27       28.20       28.12       28.03       27.94       27.84       27.72       27.60       27.47    
        27.32       27.17       27.00       26.81       26.60       26.38       26.12       25.83       25.50       25.10    
  14    28.66       28.65       28.64       28.62       28.60       28.57       28.54       28.50       28.45       28.40    
        28.34       28.27       28.20       28.12       28.03       27.94       27.84       27.72       27.60       27.47    
        27.32       27.17       27.00       26.81       26.60       26.38       26.12       25.83       25.50       25.10    
  15    28.66       28.65       28.64       28.62       28.60       28.57       28.54       28.50       28.45       28.40    
        28.34       28.27       28.20       28.12       28.03       27.94       27.84       27.72       27.60       27.47    
        27.32       27.17       27.00       26.81       26.60       26.38       26.12       25.83       25.50       25.10    
  16    28.66       28.65       28.64       28.62       28.60       28.57       28.54       28.50       28.45       28.40    
        28.34       28.27       28.20       28.12       28.03       27.94       27.84       27.72       27.60       27.47    
        27.32       27.17       27.00       26.81       26.60       26.38       26.12       25.83       25.50       25.10    
  17    28.66       28.65       28.64       28.62       28.60       28.57       28.54       28.50       28.45       28.40    
        28.34       28.27       28.20       28.12       28.03       27.94       27.84       27.72       27.60       27.47    
        27.32       27.17       27.00       26.81       26.60       26.38       26.12       25.83       25.50       25.10    
  18    28.66       28.65       28.64       28.62       28.60       28.57       28.54       28.50       28.45       28.40    
        28.34       28.27       28.20       28.12       28.03       27.94       27.84       27.72       27.60       27.47    
        27.32       27.17       27.00       26.81       26.60       26.38       26.12       25.83       25.50       25.10    
  19    28.66       28.65       28.64       28.62       28.60       28.57       28.54       28.50       28.45       28.40    
        28.34       28.27       28.20       28.12       28.03       27.94       27.84       27.72       27.60       27.47    
        27.32       27.17       27.00       26.81       26.60       26.38       26.12       25.83       25.50       25.10    
  20    28.66       28.65       28.64       28.62       28.60       28.57       28.54       28.50       28.45       28.40    
        28.34       28.27       28.20       28.12       28.03       27.94       27.84       27.72       27.60       27.47    
        27.32       27.17       27.00       26.81       26.60       26.38       26.12       25.83       25.50       25.10    
  21    28.66       28.65       28.64       28.62       28.60       28.57       28.54       28.50       28.45       28.40    
        28.34       28.27       28.20       28.12       28.03       27.94       27.84       27.72       27.60       27.47    
        27.32       27.17       27.00       26.81       26.60       26.38       26.12       25.83       25.50       25.10    
  22    28.66       28.65       28.64       28.62       28.60       28.57       28.54       28.50       28.45       28.40    
        28.34       28.27       28.20       28.12       28.03       27.94       27.84       27.72       27.60       27.47    
        27.32       27.17       27.00       26.81       26.60       26.38       26.12       25.83       25.50       25.10    
  23    28.66       28.65       28.64       28.62       28.60       28.57       28.54       28.50       28.45       28.40    
        28.34       28.27       28.20       28.12       28.03       27.94       27.84       27.72       27.60       27.47    
        27.32       27.17       27.00       26.81       26.60       26.38       26.12       25.83       25.50       25.10    
  24    28.66       28.65       28.64       28.62       28.60       28.57       28.54       28.50       28.45       28.40    
        28.34       28.27       28.20       28.12       28.03       27.94       27.84       27.72       27.60       27.47    
        27.32       27.17       27.00       26.81       26.60       26.38       26.12       25.83       25.50       25.10    
  25    28.66       28.65       28.64       28.62       28.60       28.57       28.54       28.50       28.45       28.40    
        28.34       28.27       28.20       28.12       28.03       27.94       27.84       27.72       27.60       27.47    
        27.32       27.17       27.00       26.81       26.60       26.38       26.12       25.83       25.50       25.10    
  26    28.66       28.65       28.64       28.62       28.60       28.57       28.54       28.50       28.45       28.40    
        28.34       28.27       28.20       28.12       28.03       27.94       27.84       27.72       27.60       27.47    
        27.32       27.17       27.00       26.81       26.60       26.38       26.12       25.83       25.50       25.10    
  27    28.66       28.65       28.64       28.62       28.60       28.57       28.54       28.50       28.45       28.40    
        28.34       28.27       28.20       28.12       28.03       27.94       27.84       27.72       27.60       27.47    
        27.32       27.17       27.00       26.81       26.60       26.38       26.12       25.83       25.50       25.10    
  28    28.66       28.65       28.64       28.62       28.60       28.57       28.54       28.50       28.45       28.40    
        28.34       28.27       28.20       28.12       28.03       27.94       27.84       27.72       27.60       27.47    
        27.32       27.17       27.00       26.81       26.60       26.38       26.12       25.83       25.50       25.10    
  29    28.66       28.65       28.64       28.62       28.60       28.57       28.54       28.50       28.45       28.40    
        28.34       28.27       28.20       28.12       28.03       27.94       27.84       27.72       27.60       27.47    
        27.32       27.17       27.00       26.81       26.60       26.38       26.12       25.83       25.50       25.10    
  30    28.66       28.65       28.64       28.62       28.60       28.57       28.54       28.50       28.45       28.40    
        28.34       28.27       28.20       28.12       28.03       27.94       27.84       27.72       27.60       27.47    
        27.32       27.17       27.00       26.81       26.60       26.38       26.12       25.83       25.50       25.10    

 HEAD WILL BE SAVED ON UNIT 1017 AT END OF TIME STEP    1, STRESS PERIOD    1


  VOLUME BUDGET FOR ENTIRE MODEL AT END OF TIME STEP    1, STRESS PERIOD   1
  ---------------------------------------------------------------------------------------------------

     CUMULATIVE VOLUME      L**3       RATES FOR THIS TIME STEP      L**3/T          PACKAGE NAME    
     ------------------                 ------------------------                     ----------------

           IN:                                      IN:
           ---                                      ---
              STO-SS =           0.0000                STO-SS =           0.0000     STORAGE         
              STO-SY =           0.0000                STO-SY =           0.0000     STORAGE         
                 RCH =         238.3565                   RCH =         238.3565     RCHA            
                 CHD =           0.0000                   CHD =           0.0000     CHD             

            TOTAL IN =         238.3565              TOTAL IN =         238.3565

          OUT:                                     OUT:
          ----                                     ----
              STO-SS =           0.0000                STO-SS =           0.0000     STORAGE         
              STO-SY =           0.0000                STO-SY =           0.0000     STORAGE         
                 RCH =           0.0000                   RCH =           0.0000     RCHA            
                 CHD =         238.3246                   CHD =         238.3246     CHD             

           TOTAL OUT =         238.3246             TOTAL OUT =         238.3246

            IN - OUT =       3.1891E-02              IN - OUT =       3.1891E-02

 PERCENT DISCREPANCY =           0.01     PERCENT DISCREPANCY =           0.01




         TIME SUMMARY AT END OF TIME STEP    1 IN STRESS PERIOD    1
                    SECONDS     MINUTES      HOURS       DAYS        YEARS
                    -----------------------------------------------------------
   TIME STEP LENGTH  86400.      1440.0      24.000      1.0000     2.73785E-03
 STRESS PERIOD TIME  86400.      1440.0      24.000      1.0000     2.73785E-03
         TOTAL TIME  86400.      1440.0      24.000      1.0000     2.73785E-03

 END OF FILE DETECTED IN OUTPUT CONTROL.
 CURRENT OUTPUT CONTROL SETTINGS WILL BE 
 REPEATED UNTIL THE END OF THE SIMULATION.

 OUTPUT CONTROL FOR STRESS PERIOD 2 IS REPEATED USING SETTINGS FROM A PREVIOUS STRESS PERIOD.


 UPDATING STORAGE VALUES
 END UPDATING STORAGE VALUES


 STRESS PERIOD 2 IS TRANSIENT


                 RECHARGE =  0.3287670E-02
 UBDSV1 SAVING           STO-SS ON UNIT   1016 AT TIME STEP      1, STRESS PERIOD      2
 UBDSV1 SAVING           STO-SY ON UNIT   1016 AT TIME STEP      1, STRESS PERIOD      2
 UBDSV1 SAVING     FLOW-JA-FACE ON UNIT   1016 AT TIME STEP      1, STRESS PERIOD      2
 UBDSV06 SAVING              RCH IN MODEL TEST_TRANS       PACKAGE TEST_TRANS      CONNECTED TO MODEL TEST_TRANS       PACKAGE RCHA             ON UNIT   1016 AT TIME STEP      1, STRESS PERIOD      2
 UBDSV06 SAVING              CHD IN MODEL TEST_TRANS       PACKAGE TEST_TRANS      CONNECTED TO MODEL TEST_TRANS       PACKAGE CHD              ON UNIT   1016 AT TIME STEP      1, STRESS PERIOD      2
1
  HEAD IN LAYER   1 AT END OF TIME STEP   1 IN STRESS PERIOD    2
  ---------------------------------------------------------------------------

            1           2           3           4           5           6           7           8           9          10
           11          12          13          14          15          16          17          18          19          20
           21          22          23          24          25          26          27          28          29          30
 ........................................................................................................................
   1    28.67       28.66       28.65       28.63       28.61       28.58       28.55       28.51       28.46       28.41    
        28.35       28.28       28.21       28.13       28.04       27.95       27.84       27.73       27.61       27.48    
        27.33       27.17       27.00       26.82       26.61       26.39       26.13       25.85       25.52       25.12    
   2    28.67       28.66       28.65       28.63       28.61       28.58       28.55       28.51       28.46       28.41    
        28.35       28.28       28.21       28.13       28.04       27.95       27.84       27.73       27.61       27.48    
        27.33       27.17       27.00       26.82       26.61       26.39       26.13       25.85       25.52       25.12    
   3    28.67       28.66       28.65       28.63       28.61       28.58       28.55       28.51       28.46       28.41    
        28.35       28.28       28.21       28.13       28.04       27.95       27.84       27.73       27.61       27.48    
        27.33       27.17       27.00       26.82       26.61       26.39       26.13       25.85       25.52       25.12    
   4    28.67       28.66       28.65       28.63       28.61       28.58       28.55       28.51       28.46       28.41    
        28.35       28.28       28.21       28.13       28.04       27.95       27.84       27.73       27.61       27.48    
        27.33       27.17       27.00       26.82       26.61       26.39       26.13       25.85       25.52       25.12    
   5    28.67       28.66       28.65       28.63       28.61       28.58       28.55       28.51       28.46       28.41    
        28.35       28.28       28.21       28.13       28.04       27.95       27.84       27.73       27.61       27.48    
        27.33       27.17       27.00       26.82       26.61       26.39       26.13       25.85       25.52       25.12    
   6    28.67       28.66       28.65       28.63       28.61       28.58       28.55       28.51       28.46       28.41    
        28.35       28.28       28.21       28.13       28.04       27.95       27.84       27.73       27.61       27.48    
        27.33       27.17       27.00       26.82       26.61       26.39       26.13       25.85       25.52       25.12    
   7    28.67       28.66       28.65       28.63       28.61       28.58       28.55       28.51       28.46       28.41    
        28.35       28.28       28.21       28.13       28.04       27.95       27.84       27.73       27.61       27.48    
        27.33       27.17       27.00       26.82       26.61       26.39       26.13       25.85       25.52       25.12    
   8    28.67       28.66       28.65       28.63       28.61       28.58       28.55       28.51       28.46       28.41    
        28.35       28.28       28.21       28.13       28.04       27.95       27.84       27.73       27.61       27.48    
        27.33       27.17       27.00       26.82       26.61       26.39       26.13       25.85       25.52       25.12    
   9    28.67       28.66       28.65       28.63       28.61       28.58       28.55       28.51       28.46       28.41    
        28.35       28.28       28.21       28.13       28.04       27.95       27.84       27.73       27.61       27.48    
        27.33       27.17       27.00       26.82       26.61       26.39       26.13       25.85       25.52       25.12    
  10    28.67       28.66       28.65       28.63       28.61       28.58       28.55       28.51       28.46       28.41    
        28.35       28.28       28.21       28.13       28.04       27.95       27.84       27.73       27.61       27.48    
        27.33       27.17       27.00       26.82       26.61       26.39       26.13       25.85       25.52       25.12    
  11    28.67       28.66       28.65       28.63       28.61       28.58       28.55       28.51       28.46       28.41    
        28.35       28.28       28.21       28.13       28.04       27.95       27.84       27.73       27.61       27.48    
        27.33       27.17       27.00       26.82       26.61       26.39       26.13       25.85       25.52       25.12    
  12    28.67       28.66       28.65       28.63       28.61       28.58       28.55       28.51       28.46       28.41    
        28.35       28.28       28.21       28.13       28.04       27.95       27.84       27.73       27.61       27.48    
        27.33       27.17       27.00       26.82       26.61       26.39       26.13       25.85       25.52       25.12    
  13    28.67       28.66       28.65       28.63       28.61       28.58       28.55       28.51       28.46       28.41    
        28.35       28.28       28.21       28.13       28.04       27.95       27.84       27.73       27.61       27.48    
        27.33       27.17       27.00       26.82       26.61       26.39       26.13       25.85       25.52       25.12    
  14    28.67       28.66       28.65       28.63       28.61       28.58       28.55       28.51       28.46       28.41    
        28.35       28.28       28.21       28.13       28.04       27.95       27.84       27.73       27.61       27.48    
        27.33       27.17       27.00       26.82       26.61       26.39       26.13       25.85       25.52       25.12    
  15    28.67       28.66       28.65       28.63       28.61       28.58       28.55       28.51       28.46       28.41    
        28.35       28.28       28.21       28.13       28.04       27.95       27.84       27.73       27.61       27.48    
        27.33       27.17       27.00       26.82       26.61       26.39       26.13       25.85       25.52       25.12    
  16    28.67       28.66       28.65       28.63       28.61       28.58       28.55       28.51       28.46       28.41    
        28.35       28.28       28.21       28.13       28.04       27.95       27.84       27.73       27.61       27.48    
        27.33       27.17       27.00       26.82       26.61       26.39       26.13       25.85       25.52       25.12    
  17    28.67       28.66       28.65       28.63       28.61       28.58       28.55       28.51       28.46       28.41    
        28.35       28.28       28.21       28.13       28.04       27.95       27.84       27.73       27.61       27.48    
        27.33       27.17       27.00       26.82       26.61       26.39       26.13       25.85       25.52       25.12    
  18    28.67       28.66       28.65       28.63       28.61       28.58       28.55       28.51       28.46       28.41    
        28.35       28.28       28.21       28.13       28.04       27.95       27.84       27.73       27.61       27.48    
        27.33       27.17       27.00       26.82       26.61       26.39       26.13       25.85       25.52       25.12    
  19    28.67       28.66       28.65       28.63       28.61       28.58       28.55       28.51       28.46       28.41    
        28.35       28.28       28.21       28.13       28.04       27.95       27.84       27.73       27.61       27.48    
        27.33       27.17       27.00       26.82       26.61       26.39       26.13       25.85       25.52       25.12    
  20    28.67       28.66       28.65       28.63       28.61       28.58       28.55       28.51       28.46       28.41    
        28.35       28.28       28.21       28.13       28.04       27.95       27.84       27.73       27.61       27.48    
        27.33       27.17       27.00       26.82       26.61       26.39       26.13       25.85       25.52       25.12    
  21    28.67       28.66       28.65       28.63       28.61       28.58       28.55       28.51       28.46       28.41    
        28.35       28.28       28.21       28.13       28.04       27.95       27.84       27.73       27.61       27.48    
        27.33       27.17       27.00       26.82       26.61       26.39       26.13       25.85       25.52       25.12    
  22    28.67       28.66       28.65       28.63       28.61       28.58       28.55       28.51       28.46       28.41    
        28.35       28.28       28.21       28.13       28.04       27.95       27.84       27.73       27.61       27.48    
        27.33       27.17       27.00       26.82       26.61       26.39       26.13       25.85       25.52       25.12    
  23    28.67       28.66       28.65       28.63       28.61       28.58       28.55       28.51       28.46       28.41    
        28.35       28.28       28.21       28.13       28.04       27.95       27.84       27.73       27.61       27.48    
        27.33       27.17       27.00       26.82       26.61       26.39       26.13       25.85       25.52       25.12    
  24    28.67       28.66       28.65       28.63       28.61       28.58       28.55       28.51       28.46       28.41    
        28.35       28.28       28.21       28.13       28.04       27.95       27.84       27.73       27.61       27.48    
        27.33       27.17       27.00       26.82       26.61       26.39       26.13       25.85       25.52       25.12    
  25    28.67       28.66       28.65       28.63       28.61       28.58       28.55       28.51       28.46       28.41    
        28.35       28.28       28.21       28.13       28.04       27.95       27.84       27.73       27.61       27.48    
        27.33       27.17       27.00       26.82       26.61       26.39       26.13       25.85       25.52       25.12    
  26    28.67       28.66       28.65       28.63       28.61       28.58       28.55       28.51       28.46       28.41    
        28.35       28.28       28.21       28.13       28.04       27.95       27.84       27.73       27.61       27.48    
        27.33       27.17       27.00       26.82       26.61       26.39       26.13       25.85       25.52       25.12    
  27    28.67       28.66       28.65       28.63       28.61       28.58       28.55       28.51       28.46       28.41    
        28.35       28.28       28.21       28.13       28.04       27.95       27.84       27.73       27.61       27.48    
        27.33       27.17       27.00       26.82       26.61       26.39       26.13       25.85       25.52       25.12    
  28    28.67       28.66       28.65       28.63       28.61       28.58       28.55       28.51       28.46       28.41    
        28.35       28.28       28.21       28.13       28.04       27.95       27.84       27.73       27.61       27.48    
        27.33       27.17       27.00       26.82       26.61       26.39       26.13       25.85       25.52       25.12    
  29    28.67       28.66       28.65       28.63       28.61       28.58       28.55       28.51       28.46       28.41    
        28.35       28.28       28.21       28.13       28.04       27.95       27.84       27.73       27.61       27.48    
        27.33       27.17       27.00       26.82       26.61       26.39       26.13       25.85       25.52       25.12    
  30    28.67       28.66       28.65       28.63       28.61       28.58       28.55       28.51       28.46       28.41    
        28.35       28.28       28.21       28.13       28.04       27.95       27.84       27.73       27.61       27.48    
        27.33       27.17       27.00       26.82       26.61       26.39       26.13       25.85       25.52       25.12    

 HEAD WILL BE SAVED ON UNIT 1017 AT END OF TIME STEP    1, STRESS PERIOD    2



         TIME SUMMARY AT END OF TIME STEP    1 IN STRESS PERIOD    2
                    SECONDS     MINUTES      HOURS       DAYS        YEARS
                    -----------------------------------------------------------
   TIME STEP LENGTH 2.59200E+05  4320.0      72.000      3.0000     8.21355E-03
 STRESS PERIOD TIME 2.59200E+05  4320.0      72.000      3.0000     8.21355E-03
         TOTAL TIME 3.45600E+05  5760.0      96.000      4.0000     1.09514E-02
 UBDSV1 SAVING           STO-SS ON UNIT   1016 AT TIME STEP      2, STRESS PERIOD      2
 UBDSV1 SAVING           STO-SY ON UNIT   1016 AT TIME STEP      2, STRESS PERIOD      2
 UBDSV1 SAVING     FLOW-JA-FACE ON UNIT   1016 AT TIME STEP      2, STRESS PERIOD      2
 UBDSV06 SAVING              RCH IN MODEL TEST_TRANS       PACKAGE TEST_TRANS      CONNECTED TO MODEL TEST_TRANS       PACKAGE RCHA             ON UNIT   1016 AT TIME STEP      2, STRESS PERIOD      2
 UBDSV06 SAVING              CHD IN MODEL TEST_TRANS       PACKAGE TEST_TRANS      CONNECTED TO MODEL TEST_TRANS       PACKAGE CHD              ON UNIT   1016 AT TIME STEP      2, STRESS PERIOD      2

 HEAD WILL BE SAVED ON UNIT 1017 AT END OF TIME STEP    2, STRESS PERIOD    2
 UBDSV1 SAVING           STO-SS ON UNIT   1016 AT TIME STEP      3, STRESS PERIOD      2
 UBDSV1 SAVING           STO-SY ON UNIT   1016 AT TIME STEP      3, STRESS PERIOD      2
 UBDSV1 SAVING     FLOW-JA-FACE ON UNIT   1016 AT TIME STEP      3, STRESS PERIOD      2
 UBDSV06 SAVING              RCH IN MODEL TEST_TRANS       PACKAGE TEST_TRANS      CONNECTED TO MODEL TEST_TRANS       PACKAGE RCHA             ON UNIT   1016 AT TIME STEP      3, STRESS PERIOD      2
 UBDSV06 SAVING              CHD IN MODEL TEST_TRANS       PACKAGE TEST_TRANS      CONNECTED TO MODEL TEST_TRANS       PACKAGE CHD              ON UNIT   1016 AT TIME STEP      3, STRESS PERIOD      2

 HEAD WILL BE SAVED ON UNIT 1017 AT END OF TIME STEP    3, STRESS PERIOD    2
 UBDSV1 SAVING           STO-SS ON UNIT   1016 AT TIME STEP      4, STRESS PERIOD      2
 UBDSV1 SAVING           STO-SY ON UNIT   1016 AT TIME STEP      4, STRESS PERIOD      2
 UBDSV1 SAVING     FLOW-JA-FACE ON UNIT   1016 AT TIME STEP      4, STRESS PERIOD      2
 UBDSV06 SAVING              RCH IN MODEL TEST_TRANS       PACKAGE TEST_TRANS      CONNECTED TO MODEL TEST_TRANS       PACKAGE RCHA             ON UNIT   1016 AT TIME STEP      4, STRESS PERIOD      2
 UBDSV06 SAVING              CHD IN MODEL TEST_TRANS       PACKAGE TEST_TRANS      CONNECTED TO MODEL TEST_TRANS       PACKAGE CHD              ON UNIT   1016 AT TIME STEP      4, STRESS PERIOD      2

 HEAD WILL BE SAVED ON UNIT 1017 AT END OF TIME STEP    4, STRESS PERIOD    2
 UBDSV1 SAVING           STO-SS ON UNIT   1016 AT TIME STEP      5, STRESS PERIOD      2
 UBDSV1 SAVING           STO-SY ON UNIT   1016 AT TIME STEP      5, STRESS PERIOD      2
 UBDSV1 SAVING     FLOW-JA-FACE ON UNIT   1016 AT TIME STEP      5, STRESS PERIOD      2
 UBDSV06 SAVING              RCH IN MODEL TEST_TRANS       PACKAGE TEST_TRANS      CONNECTED TO MODEL TEST_TRANS       PACKAGE RCHA             ON UNIT   1016 AT TIME STEP      5, STRESS PERIOD      2
 UBDSV06 SAVING              CHD IN MODEL TEST_TRANS       PACKAGE TEST_TRANS      CONNECTED TO MODEL TEST_TRANS       PACKAGE CHD              ON UNIT   1016 AT TIME STEP      5, STRESS PERIOD      2

 HEAD WILL BE SAVED ON UNIT 1017 AT END OF TIME STEP    5, STRESS PERIOD    2
 UBDSV1 SAVING           STO-SS ON UNIT   1016 AT TIME STEP      6, STRESS PERIOD      2
 UBDSV1 SAVING           STO-SY ON UNIT   1016 AT TIME STEP      6, STRESS PERIOD      2
 UBDSV1 SAVING     FLOW-JA-FACE ON UNIT   1016 AT TIME STEP      6, STRESS PERIOD      2
 UBDSV06 SAVING              RCH IN MODEL TEST_TRANS       PACKAGE TEST_TRANS      CONNECTED TO MODEL TEST_TRANS       PACKAGE RCHA             ON UNIT   1016 AT TIME STEP      6, STRESS PERIOD      2
 UBDSV06 SAVING              CHD IN MODEL TEST_TRANS       PACKAGE TEST_TRANS      CONNECTED TO MODEL TEST_TRANS       PACKAGE CHD              ON UNIT   1016 AT TIME STEP      6, STRESS PERIOD      2

 HEAD WILL BE SAVED ON UNIT 1017 AT END OF TIME STEP    6, STRESS PERIOD    2
 UBDSV1 SAVING           STO-SS ON UNIT   1016 AT TIME STEP      7, STRESS PERIOD      2
 UBDSV1 SAVING           STO-SY ON UNIT   1016 AT TIME STEP      7, STRESS PERIOD      2
 UBDSV1 SAVING     FLOW-JA-FACE ON UNIT   1016 AT TIME STEP      7, STRESS PERIOD      2
 UBDSV06 SAVING              RCH IN MODEL TEST_TRANS       PACKAGE TEST_TRANS      CONNECTED TO MODEL TEST_TRANS       PACKAGE RCHA             ON UNIT   1016 AT TIME STEP      7, STRESS PERIOD      2
 UBDSV06 SAVING              CHD IN MODEL TEST_TRANS       PACKAGE TEST_TRANS      CONNECTED TO MODEL TEST_TRANS       PACKAGE CHD              ON UNIT   1016 AT TIME STEP      7, STRESS PERIOD      2

 HEAD WILL BE SAVED ON UNIT 1017 AT END OF TIME STEP    7, STRESS PERIOD    2
 UBDSV1 SAVING           STO-SS ON UNIT   1016 AT TIME STEP      8, STRESS PERIOD      2
 UBDSV1 SAVING           STO-SY ON UNIT   1016 AT TIME STEP      8, STRESS PERIOD      2
 UBDSV1 SAVING     FLOW-JA-FACE ON UNIT   1016 AT TIME STEP      8, STRESS PERIOD      2
 UBDSV06 SAVING              RCH IN MODEL TEST_TRANS       PACKAGE TEST_TRANS      CONNECTED TO MODEL TEST_TRANS       PACKAGE RCHA             ON UNIT   1016 AT TIME STEP      8, STRESS PERIOD      2
 UBDSV06 SAVING              CHD IN MODEL TEST_TRANS       PACKAGE TEST_TRANS      CONNECTED TO MODEL TEST_TRANS       PACKAGE CHD              ON UNIT   1016 AT TIME STEP      8, STRESS PERIOD      2

 HEAD WILL BE SAVED ON UNIT 1017 AT END OF TIME STEP    8, STRESS PERIOD    2
 UBDSV1 SAVING           STO-SS ON UNIT   1016 AT TIME STEP      9, STRESS PERIOD      2
 UBDSV1 SAVING           STO-SY ON UNIT   1016 AT TIME STEP      9, STRESS PERIOD      2
 UBDSV1 SAVING     FLOW-JA-FACE ON UNIT   1016 AT TIME STEP      9, STRESS PERIOD      2
 UBDSV06 SAVING              RCH IN MODEL TEST_TRANS       PACKAGE TEST_TRANS      CONNECTED TO MODEL TEST_TRANS       PACKAGE RCHA             ON UNIT   1016 AT TIME STEP      9, STRESS PERIOD      2
 UBDSV06 SAVING              CHD IN MODEL TEST_TRANS       PACKAGE TEST_TRANS      CONNECTED TO MODEL TEST_TRANS       PACKAGE CHD              ON UNIT   1016 AT TIME STEP      9, STRESS PERIOD      2

 HEAD WILL BE SAVED ON UNIT 1017 AT END OF TIME STEP    9, STRESS PERIOD    2
 UBDSV1 SAVING           STO-SS ON UNIT   1016 AT TIME STEP     10, STRESS PERIOD      2
 UBDSV1 SAVING           STO-SY ON UNIT   1016 AT TIME STEP     10, STRESS PERIOD      2
 UBDSV1 SAVING     FLOW-JA-FACE ON UNIT   1016 AT TIME STEP     10, STRESS PERIOD      2
 UBDSV06 SAVING              RCH IN MODEL TEST_TRANS       PACKAGE TEST_TRANS      CONNECTED TO MODEL TEST_TRANS       PACKAGE RCHA             ON UNIT   1016 AT TIME STEP     10, STRESS PERIOD      2
 UBDSV06 SAVING              CHD IN MODEL TEST_TRANS       PACKAGE TEST_TRANS      CONNECTED TO MODEL TEST_TRANS       PACKAGE CHD              ON UNIT   1016 AT TIME STEP     10, STRESS PERIOD      2
1
  HEAD IN LAYER   1 AT END OF TIME STEP  10 IN STRESS PERIOD    2
  ---------------------------------------------------------------------------

            1           2           3           4           5           6           7           8           9          10
           11          12          13          14          15          16          17          18          19          20
           21          22          23          24          25          26          27          28          29          30
 ........................................................................................................................
   1    28.74       28.73       28.72       28.70       28.68       28.65       28.62       28.58       28.53       28.48    
        28.42       28.35       28.28       28.20       28.11       28.02       27.91       27.80       27.67       27.54    
        27.40       27.24       27.06       26.88       26.67       26.44       26.18       25.88       25.54       25.12    
   2    28.74       28.73       28.72       28.70       28.68       28.65       28.62       28.58       28.53       28.48    
        28.42       28.35       28.28       28.20       28.11       28.02       27.91       27.80       27.67       27.54    
        27.40       27.24       27.06       26.88       26.67       26.44       26.18       25.88       25.54       25.12    
   3    28.74       28.73       28.72       28.70       28.68       28.65       28.62       28.58       28.53       28.48    
        28.42       28.35       28.28       28.20       28.11       28.02       27.91       27.80       27.67       27.54    
        27.40       27.24       27.06       26.88       26.67       26.44       26.18       25.88       25.54       25.12    
   4    28.74       28.73       28.72       28.70       28.68       28.65       28.62       28.58       28.53       28.48    
        28.42       28.35       28.28       28.20       28.11       28.02       27.91       27.80       27.67       27.54    
        27.40       27.24       27.06       26.88       26.67       26.44       26.18       25.88       25.54       25.12    
   5    28.74       28.73       28.72       28.70       28.68       28.65       28.62       28.58       28.53       28.48    
        28.42       28.35       28.28       28.20       28.11       28.02       27.91       27.80       27.67       27.54    
        27.40       27.24       27.06       26.88       26.67       26.44       26.18       25.88       25.54       25.12    
   6    28.74       28.73       28.72       28.70       28.68       28.65       28.62       28.58       28.53       28.48    
        28.42       28.35       28.28       28.20       28.11       28.02       27.91       27.80       27.67       27.54    
        27.40       27.24       27.06       26.88       26.67       26.44       26.18       25.88       25.54       25.12    
   7    28.74       28.73       28.72       28.70       28.68       28.65       28.62       28.58       28.53       28.48    
        28.42       28.35       28.28       28.20       28.11       28.02       27.91       27.80       27.67       27.54    
        27.40       27.24       27.06       26.88       26.67       26.44       26.18       25.88       25.54       25.12    
   8    28.74       28.73       28.72       28.70       28.68       28.65       28.62       28.58       28.53       28.48    
        28.42       28.35       28.28       28.20       28.11       28.02       27.91       27.80       27.67       27.54    
        27.40       27.24       27.06       26.88       26.67       26.44       26.18       25.88       25.54       25.12    
   9    28.74       28.73       28.72       28.70       28.68       28.65       28.62       28.58       28.53       28.48    
        28.42       28.35       28.28       28.20       28.11       28.02       27.91       27.80       27.67       27.54    
        27.40       27.24       27.06       26.88       26.67       26.44       26.18       25.88       25.54       25.12    
  10    28.74       28.73       28.72       28.70       28.68       28.65       28.62       28.58       28.53       28.48    
        28.42       28.35       28.28       28.20       28.11       28.02       27.91       27.80       27.67       27.54    
        27.40       27.24       27.06       26.88       26.67       26.44       26.18       25.88       25.54       25.12    
  11    28.74       28.73       28.72       28.70       28.68       28.65       28.62       28.58       28.53       28.48    
        28.42       28.35       28.28       28.20       28.11       28.02       27.91       27.80       27.67       27.54    
        27.40       27.24       27.06       26.88       26.67       26.44       26.18       25.88       25.54       25.12    
  12    28.74       28.73       28.72       28.70       28.68       28.65       28.62       28.58       28.53       28.48    
        28.42       28.35       28.28       28.20       28.11       28.02       27.91       27.80       27.67       27.54    
        27.40       27.24       27.06       26.88       26.67       26.44       26.18       25.88       25.54       25.12    
  13    28.74       28.73       28.72       28.70       28.68       28.65       28.62       28.58       28.53       28.48    
        28.42       28.35       28.28       28.20       28.11       28.02       27.91       27.80       27.67       27.54    
        27.40       27.24       27.06       26.88       26.67       26.44       26.18       25.88       25.54       25.12    
  14    28.74       28.73       28.72       28.70       28.68       28.65       28.62       28.58       28.53       28.48    
        28.42       28.35       28.28       28.20       28.11       28.02       27.91       27.80       27.67       27.54    
        27.40       27.24       27.06       26.88       26.67       26.44       26.18       25.88       25.54       25.12    
  15    28.74       28.73       28.72       28.70       28.68       28.65       28.62       28.58       28.53       28.48    
        28.42       28.35       28.28       28.20       28.11       28.02       27.91       27.80       27.67       27.54    
        27.40       27.24       27.06       26.88       26.67       26.44       26.18       25.88       25.54       25.12    
  16    28.74       28.73       28.72       28.70       28.68       28.65       28.62       28.58       28.53       28.48    
        28.42       28.35       28.28       28.20       28.11       28.02       27.91       27.80       27.67       27.54    
        27.40       27.24       27.06       26.88       26.67       26.44       26.18       25.88       25.54       25.12    
  17    28.74       28.73       28.72       28.70       28.68       28.65       28.62       28.58       28.53       28.48    
        28.42       28.35       28.28       28.20       28.11       28.02       27.91       27.80       27.67       27.54    
        27.40       27.24       27.06       26.88       26.67       26.44       26.18       25.88       25.54       25.12    
  18    28.74       28.73       28.72       28.70       28.68       28.65       28.62       28.58       28.53       28.48    
        28.42       28.35       28.28       28.20       28.11       28.02       27.91       27.80       27.67       27.54    
        27.40       27.24       27.06       26.88       26.67       26.44       26.18       25.88       25.54       25.12    
  19    28.74       28.73       28.72       28.70       28.68       28.65       28.62       28.58       28.53       28.48    
        28.42       28.35       28.28       28.20       28.11       28.02       27.91       27.80       27.67       27.54    
        27.40       27.24       27.06       26.88       26.67       26.44       26.18       25.88       25.54       25.12    
  20    28.74       28.73       28.72       28.70       28.68       28.65       28.62       28.58       28.53       28.48    
        28.42       28.35       28.28       28.20       28.11       28.02       27.91       27.80       27.67       27.54    
        27.40       27.24       27.06       26.88       26.67       26.44       26.18       25.88       25.54       25.12    
  21    28.74       28.73       28.72       28.70       28.68       28.65       28.62       28.58       28.53       28.48    
        28.42       28.35       28.28       28.20       28.11       28.02       27.91       27.80       27.67       27.54    
        27.40       27.24       27.06       26.88       26.67       26.44       26.18       25.88       25.54       25.12    
  22    28.74       28.73       28.72       28.70       28.68       28.65       28.62       28.58       28.53       28.48    
        28.42       28.35       28.28       28.20       28.11       28.02       27.91       27.80       27.67       27.54    
        27.40       27.24       27.06       26.88       26.67       26.44       26.18       25.88       25.54       25.12    
  23    28.74       28.73       28.72       28.70       28.68       28.65       28.62       28.58       28.53       28.48    
        28.42       28.35       28.28       28.20       28.11       28.02       27.91       27.80       27.67       27.54    
        27.40       27.24       27.06       26.88       26.67       26.44       26.18       25.88       25.54       25.12    
  24    28.74       28.73       28.72       28.70       28.68       28.65       28.62       28.58       28.53       28.48    
        28.42       28.35       28.28       28.20       28.11       28.02       27.91       27.80       27.67       27.54    
        27.40       27.24       27.06       26.88       26.67       26.44       26.18       25.88       25.54       25.12    
  25    28.74       28.73       28.72       28.70       28.68       28.65       28.62       28.58       28.53       28.48    
        28.42       28.35       28.28       28.20       28.11       28.02       27.91       27.80       27.67       27.54    
        27.40       27.24       27.06       26.88       26.67       26.44       26.18       25.88       25.54       25.12    
  26    28.74       28.73       28.72       28.70       28.68       28.65       28.62       28.58       28.53       28.48    
        28.42       28.35       28.28       28.20       28.11       28.02       27.91       27.80       27.67       27.54    
        27.40       27.24       27.06       26.88       26.67       26.44       26.18       25.88       25.54       25.12    
  27    28.74       28.73       28.72       28.70       28.68       28.65       28.62       28.58       28.53       28.48    
        28.42       28.35       28.28       28.20       28.11       28.02       27.91       27.80       27.67       27.54    
        27.40       27.24       27.06       26.88       26.67       26.44       26.18       25.88       25.54       25.12    
  28    28.74       28.73       28.72       28.70       28.68       28.65       28.62       28.58       28.53       28.48    
        28.42       28.35       28.28       28.20       28.11       28.02       27.91       27.80       27.67       27.54    
        27.40       27.24       27.06       26.88       26.67       26.44       26.18       25.88       25.54       25.12    
  29    28.74       28.73       28.72       28.70       28.68       28.65       28.62       28.58       28.53       28.48    
        28.42       28.35       28.28       28.20       28.11       28.02       27.91       27.80       27.67       27.54    
        27.40       27.24       27.06       26.88       26.67       26.44       26.18       25.88       25.54       25.12    
  30    28.74       28.73       28.72       28.70       28.68       28.65       28.62       28.58       28.53       28.48    
        28.42       28.35       28.28       28.20       28.11       28.02       27.91       27.80       27.67       27.54    
        27.40       27.24       27.06       26.88       26.67       26.44       26.18       25.88       25.54       25.12    

 HEAD WILL BE SAVED ON UNIT 1017 AT END OF TIME STEP   10, STRESS PERIOD    2


  VOLUME BUDGET FOR ENTIRE MODEL AT END OF TIME STEP   10, STRESS PERIOD   2
  ---------------------------------------------------------------------------------------------------

     CUMULATIVE VOLUME      L**3       RATES FOR THIS TIME STEP      L**3/T          PACKAGE NAME    
     ------------------                 ------------------------                     ----------------

           IN:                                      IN:
           ---                                      ---
              STO-SS =           0.0000                STO-SS =           0.0000     STORAGE         
              STO-SY =           0.0000                STO-SY =           0.0000     STORAGE         
                 RCH =        8819.1752                   RCH =         286.0273     RCHA            
                 CHD =           0.0000                   CHD =           0.0000     CHD             

            TOTAL IN =        8819.1752              TOTAL IN =         286.0273

          OUT:                                     OUT:
          ----                                     ----
              STO-SS =           2.0568                STO-SS =       6.0001E-02     STORAGE         
              STO-SY =        1256.3138                STO-SY =          36.2983     STORAGE         
                 RCH =           0.0000                   RCH =           0.0000     RCHA            
                 CHD =        7560.9275                   CHD =         249.6737     CHD             

           TOTAL OUT =        8819.2980             TOTAL OUT =         286.0321

            IN - OUT =          -0.1228              IN - OUT =      -4.7746E-03

 PERCENT DISCREPANCY =          -0.00     PERCENT DISCREPANCY =          -0.00




         TIME SUMMARY AT END OF TIME STEP   10 IN STRESS PERIOD    2
                    SECONDS     MINUTES      HOURS       DAYS        YEARS
                    -----------------------------------------------------------
   TIME STEP LENGTH 2.59200E+05  4320.0      72.000      3.0000     8.21355E-03
 STRESS PERIOD TIME 2.59200E+06  43200.      720.00      30.000     8.21355E-02
         TOTAL TIME 2.67840E+06  44640.      744.00      31.000     8.48734E-02

 OUTPUT CONTROL FOR STRESS PERIOD 3 IS REPEATED USING SETTINGS FROM A PREVIOUS STRESS PERIOD.


 STRESS PERIOD 3 IS TRANSIENT


                 RECHARGE =  0.2465750E-02
 UBDSV1 SAVING           STO-SS ON UNIT   1016 AT TIME STEP      1, STRESS PERIOD      3
 UBDSV1 SAVING           STO-SY ON UNIT   1016 AT TIME STEP      1, STRESS PERIOD      3
 UBDSV1 SAVING     FLOW-JA-FACE ON UNIT   1016 AT TIME STEP      1, STRESS PERIOD      3
 UBDSV06 SAVING              RCH IN MODEL TEST_TRANS       PACKAGE TEST_TRANS      CONNECTED TO MODEL TEST_TRANS       PACKAGE RCHA             ON UNIT   1016 AT TIME STEP      1, STRESS PERIOD      3
 UBDSV06 SAVING              CHD IN MODEL TEST_TRANS       PACKAGE TEST_TRANS      CONNECTED TO MODEL TEST_TRANS       PACKAGE CHD              ON UNIT   1016 AT TIME STEP      1, STRESS PERIOD      3
1
  HEAD IN LAYER   1 AT END OF TIME STEP   1 IN STRESS PERIOD    3
  ---------------------------------------------------------------------------

            1           2           3           4           5           6           7           8           9          10
           11          12          13          14          15          16          17          18          19          20
           21          22          23          24          25          26          27          28          29          30
 ........................................................................................................................
   1    28.73       28.73       28.71       28.70       28.68       28.65       28.61       28.57       28.53       28.47    
        28.41       28.35       28.27       28.19       28.11       28.01       27.91       27.79       27.67       27.54    
        27.39       27.23       27.06       26.87       26.67       26.44       26.19       25.91       25.59       25.23    
   2    28.73       28.73       28.71       28.70       28.68       28.65       28.61       28.57       28.53       28.47    
        28.41       28.35       28.27       28.19       28.11       28.01       27.91       27.79       27.67       27.54    
        27.39       27.23       27.06       26.87       26.67       26.44       26.19       25.91       25.59       25.23    
   3    28.73       28.73       28.71       28.70       28.68       28.65       28.61       28.57       28.53       28.47    
        28.41       28.35       28.27       28.19       28.11       28.01       27.91       27.79       27.67       27.54    
        27.39       27.23       27.06       26.87       26.67       26.44       26.19       25.91       25.59       25.23    
   4    28.73       28.73       28.71       28.70       28.68       28.65       28.61       28.57       28.53       28.47    
        28.41       28.35       28.27       28.19       28.11       28.01       27.91       27.79       27.67       27.54    
        27.39       27.23       27.06       26.87       26.67       26.44       26.19       25.91       25.59       25.23    
   5    28.73       28.73       28.71       28.70       28.68       28.65       28.61       28.57       28.53       28.47    
        28.41       28.35       28.27       28.19       28.11       28.01       27.91       27.79       27.67       27.54    
        27.39       27.23       27.06       26.87       26.67       26.44       26.19       25.91       25.59       25.23    
   6    28.73       28.73       28.71       28.70       28.68       28.65       28.61       28.57       28.53       28.47    
        28.41       28.35       28.27       28.19       28.11       28.01       27.91       27.79       27.67       27.54    
        27.39       27.23       27.06       26.87       26.67       26.44       26.19       25.91       25.59       25.23    
   7    28.73       28.73       28.71       28.70       28.68       28.65       28.61       28.57       28.53       28.47    
        28.41       28.35       28.27       28.19       28.11       28.01       27.91       27.79       27.67       27.54    
        27.39       27.23       27.06       26.87       26.67       26.44       26.19       25.91       25.59       25.23    
   8    28.73       28.73       28.71       28.70       28.68       28.65       28.61       28.57       28.53       28.47    
        28.41       28.35       28.27       28.19       28.11       28.01       27.91       27.79       27.67       27.54    
        27.39       27.23       27.06       26.87       26.67       26.44       26.19       25.91       25.59       25.23    
   9    28.73       28.73       28.71       28.70       28.68       28.65       28.61       28.57       28.53       28.47    
        28.41       28.35       28.27       28.19       28.11       28.01       27.91       27.79       27.67       27.54    
        27.39       27.23       27.06       26.87       26.67       26.44       26.19       25.91       25.59       25.23    
  10    28.73       28.73       28.71       28.70       28.68       28.65       28.61       28.57       28.53       28.47    
        28.41       28.35       28.27       28.19       28.11       28.01       27.91       27.79       27.67       27.54    
        27.39       27.23       27.06       26.87       26.67       26.44       26.19       25.91       25.59       25.23    
  11    28.73       28.73       28.71       28.70       28.68       28.65       28.61       28.57       28.53       28.47    
        28.41       28.35       28.27       28.19       28.11       28.01       27.91       27.79       27.67       27.54    
        27.39       27.23       27.06       26.87       26.67       26.44       26.19       25.91       25.59       25.23    
  12    28.73       28.73       28.71       28.70       28.68       28.65       28.61       28.57       28.53       28.47    
        28.41       28.35       28.27       28.19       28.11       28.01       27.91       27.79       27.67       27.54    
        27.39       27.23       27.06       26.87       26.67       26.44       26.19       25.91       25.59       25.23    
  13    28.73       28.73       28.71       28.70       28.68       28.65       28.61       28.57       28.53       28.47    
        28.41       28.35       28.27       28.19       28.11       28.01       27.91       27.79       27.67       27.54    
        27.39       27.23       27.06       26.87       26.67       26.44       26.19       25.91       25.59       25.23    
  14    28.73       28.73       28.71       28.70       28.68       28.65       28.61       28.57       28.53       28.47    
        28.41       28.35       28.27       28.19       28.11       28.01       27.91       27.79       27.67       27.54    
        27.39       27.23       27.06       26.87       26.67       26.44       26.19       25.91       25.59       25.23    
  15    28.73       28.73       28.71       28.70       28.68       28.65       28.61       28.57       28.53       28.47    
        28.41       28.35       28.27       28.19       28.11       28.01       27.91       27.79       27.67       27.54    
        27.39       27.23       27.06       26.87       26.67       26.44       26.19       25.91       25.59       25.23    
  16    28.73       28.73       28.71       28.70       28.68       28.65       28.61       28.57       28.53       28.47    
        28.41       28.35       28.27       28.19       28.11       28.01       27.91       27.79       27.67       27.54    
        27.39       27.23       27.06       26.87       26.67       26.44       26.19       25.91       25.59       25.23    
  17    28.73       28.73       28.71       28.70       28.68       28.65       28.61       28.57       28.53       28.47    
        28.41       28.35       28.27       28.19       28.11       28.01       27.91       27.79       27.67       27.54    
        27.39       27.23       27.06       26.87       26.67       26.44       26.19       25.91       25.59       25.23    
  18    28.73       28.73       28.71       28.70       28.68       28.65       28.61       28.57       28.53       28.47    
        28.41       28.35       28.27       28.19       28.11       28.01       27.91       27.79       27.67       27.54    
        27.39       27.23       27.06       26.87       26.67       26.44       26.19       25.91       25.59       25.23    
  19    28.73       28.73       28.71       28.70       28.68       28.65       28.61       28.57       28.53       28.47    
        28.41       28.35       28.27       28.19       28.11       28.01       27.91       27.79       27.67       27.54    
        27.39       27.23       27.06       26.87       26.67       26.44       26.19       25.91       25.59       25.23    
  20    28.73       28.73       28.71       28.70       28.68       28.65       28.61       28.57       28.53       28.47    
        28.41       28.35       28.27       28.19       28.11       28.01       27.91       27.79       27.67       27.54    
        27.39       27.23       27.06       26.87       26.67       26.44       26.19       25.91       25.59       25.23    
  21    28.73       28.73       28.71       28.70       28.68       28.65       28.61       28.57       28.53       28.47    
        28.41       28.35       28.27       28.19       28.11       28.01       27.91       27.79       27.67       27.54    
        27.39       27.23       27.06       26.87       26.67       26.44       26.19       25.91       25.59       25.23    
  22    28.73       28.73       28.71       28.70       28.68       28.65       28.61       28.57       28.53       28.47    
        28.41       28.35       28.27       28.19       28.11       28.01       27.91       27.79       27.67       27.54    
        27.39       27.23       27.06       26.87       26.67       26.44       26.19       25.91       25.59       25.23    
  23    28.73       28.73       28.71       28.70       28.68       28.65       28.61       28.57       28.53       28.47    
        28.41       28.35       28.27       28.19       28.11       28.01       27.91       27.79       27.67       27.54    
        27.39       27.23       27.06       26.87       26.67       26.44       26.19       25.91       25.59       25.23    
  24    28.73       28.73       28.71       28.70       28.68       28.65       28.61       28.57       28.53       28.47    
        28.41       28.35       28.27       28.19       28.11       28.01       27.91       27.79       27.67       27.54    
        27.39       27.23       27.06       26.87       26.67       26.44       26.19       25.91       25.59       25.23    
  25    28.73       28.73       28.71       28.70       28.68       28.65       28.61       28.57       28.53       28.47    
        28.41       28.35       28.27       28.19       28.11       28.01       27.91       27.79       27.67       27.54    
        27.39       27.23       27.06       26.87       26.67       26.44       26.19       25.91       25.59       25.23    
  26    28.73       28.73       28.71       28.70       28.68       28.65       28.61       28.57       28.53       28.47    
        28.41       28.35       28.27       28.19       28.11       28.01       27.91       27.79       27.67       27.54    
        27.39       27.23       27.06       26.87       26.67       26.44       26.19       25.91       25.59       25.23    
  27    28.73       28.73       28.71       28.70       28.68       28.65       28.61       28.57       28.53       28.47    
        28.41       28.35       28.27       28.19       28.11       28.01       27.91       27.79       27.67       27.54    
        27.39       27.23       27.06       26.87       26.67       26.44       26.19       25.91       25.59       25.23    
  28    28.73       28.73       28.71       28.70       28.68       28.65       28.61       28.57       28.53       28.47    
        28.41       28.35       28.27       28.19       28.11       28.01       27.91       27.79       27.67       27.54    
        27.39       27.23       27.06       26.87       26.67       26.44       26.19       25.91       25.59       25.23    
  29    28.73       28.73       28.71       28.70       28.68       28.65       28.61       28.57       28.53       28.47    
        28.41       28.35       28.27       28.19       28.11       28.01       27.91       27.79       27.67       27.54    
        27.39       27.23       27.06       26.87       26.67       26.44       26.19       25.91       25.59       25.23    
  30    28.73       28.73       28.71       28.70       28.68       28.65       28.61       28.57       28.53       28.47    
        28.41       28.35       28.27       28.19       28.11       28.01       27.91       27.79       27.67       27.54    
        27.39       27.23       27.06       26.87       26.67       26.44       26.19       25.91       25.59       25.23    

 HEAD WILL BE SAVED ON UNIT 1017 AT END OF TIME STEP    1, STRESS PERIOD    3



         TIME SUMMARY AT END OF TIME STEP    1 IN STRESS PERIOD    3
                    SECONDS     MINUTES      HOURS       DAYS        YEARS
                    -----------------------------------------------------------
   TIME STEP LENGTH 2.59200E+05  4320.0      72.000      3.0000     8.21355E-03
 STRESS PERIOD TIME 2.59200E+05  4320.0      72.000      3.0000     8.21355E-03
         TOTAL TIME 2.93760E+06  48960.      816.00      34.000     9.30869E-02
 UBDSV1 SAVING           STO-SS ON UNIT   1016 AT TIME STEP      2, STRESS PERIOD      3
 UBDSV1 SAVING           STO-SY ON UNIT   1016 AT TIME STEP      2, STRESS PERIOD      3
 UBDSV1 SAVING     FLOW-JA-FACE ON UNIT   1016 AT TIME STEP      2, STRESS PERIOD      3
 UBDSV06 SAVING              RCH IN MODEL TEST_TRANS       PACKAGE TEST_TRANS      CONNECTED TO MODEL TEST_TRANS       PACKAGE RCHA             ON UNIT   1016 AT TIME STEP      2, STRESS PERIOD      3
 UBDSV06 SAVING              CHD IN MODEL TEST_TRANS       PACKAGE TEST_TRANS      CONNECTED TO MODEL TEST_TRANS       PACKAGE CHD              ON UNIT   1016 AT TIME STEP      2, STRESS PERIOD      3

 HEAD WILL BE SAVED ON UNIT 1017 AT END OF TIME STEP    2, STRESS PERIOD    3
 UBDSV1 SAVING           STO-SS ON UNIT   1016 AT TIME STEP      3, STRESS PERIOD      3
 UBDSV1 SAVING           STO-SY ON UNIT   1016 AT TIME STEP      3, STRESS PERIOD      3
 UBDSV1 SAVING     FLOW-JA-FACE ON UNIT   1016 AT TIME STEP      3, STRESS PERIOD      3
 UBDSV06 SAVING              RCH IN MODEL TEST_TRANS       PACKAGE TEST_TRANS      CONNECTED TO MODEL TEST_TRANS       PACKAGE RCHA             ON UNIT   1016 AT TIME STEP      3, STRESS PERIOD      3
 UBDSV06 SAVING              CHD IN MODEL TEST_TRANS       PACKAGE TEST_TRANS      CONNECTED TO MODEL TEST_TRANS       PACKAGE CHD              ON UNIT   1016 AT TIME STEP      3, STRESS PERIOD      3

 HEAD WILL BE SAVED ON UNIT 1017 AT END OF TIME STEP    3, STRESS PERIOD    3
 UBDSV1 SAVING           STO-SS ON UNIT   1016 AT TIME STEP      4, STRESS PERIOD      3
 UBDSV1 SAVING           STO-SY ON UNIT   1016 AT TIME STEP      4, STRESS PERIOD      3
 UBDSV1 SAVING     FLOW-JA-FACE ON UNIT   1016 AT TIME STEP      4, STRESS PERIOD      3
 UBDSV06 SAVING              RCH IN MODEL TEST_TRANS       PACKAGE TEST_TRANS      CONNECTED TO MODEL TEST_TRANS       PACKAGE RCHA             ON UNIT   1016 AT TIME STEP      4, STRESS PERIOD      3
 UBDSV06 SAVING              CHD IN MODEL TEST_TRANS       PACKAGE TEST_TRANS      CONNECTED TO MODEL TEST_TRANS       PACKAGE CHD              ON UNIT   1016 AT TIME STEP      4, STRESS PERIOD      3

 HEAD WILL BE SAVED ON UNIT 1017 AT END OF TIME STEP    4, STRESS PERIOD    3
 UBDSV1 SAVING           STO-SS ON UNIT   1016 AT TIME STEP      5, STRESS PERIOD      3
 UBDSV1 SAVING           STO-SY ON UNIT   1016 AT TIME STEP      5, STRESS PERIOD      3
 UBDSV1 SAVING     FLOW-JA-FACE ON UNIT   1016 AT TIME STEP      5, STRESS PERIOD      3
 UBDSV06 SAVING              RCH IN MODEL TEST_TRANS       PACKAGE TEST_TRANS      CONNECTED TO MODEL TEST_TRANS       PACKAGE RCHA             ON UNIT   1016 AT TIME STEP      5, STRESS PERIOD      3
 UBDSV06 SAVING              CHD IN MODEL TEST_TRANS       PACKAGE TEST_TRANS      CONNECTED TO MODEL TEST_TRANS       PACKAGE CHD              ON UNIT   1016 AT TIME STEP      5, STRESS PERIOD      3

 HEAD WILL BE SAVED ON UNIT 1017 AT END OF TIME STEP    5, STRESS PERIOD    3
 UBDSV1 SAVING           STO-SS ON UNIT   1016 AT TIME STEP      6, STRESS PERIOD      3
 UBDSV1 SAVING           STO-SY ON UNIT   1016 AT TIME STEP      6, STRESS PERIOD      3
 UBDSV1 SAVING     FLOW-JA-FACE ON UNIT   1016 AT TIME STEP      6, STRESS PERIOD      3
 UBDSV06 SAVING              RCH IN MODEL TEST_TRANS       PACKAGE TEST_TRANS      CONNECTED TO MODEL TEST_TRANS       PACKAGE RCHA             ON UNIT   1016 AT TIME STEP      6, STRESS PERIOD      3
 UBDSV06 SAVING              CHD IN MODEL TEST_TRANS       PACKAGE TEST_TRANS      CONNECTED TO MODEL TEST_TRANS       PACKAGE CHD              ON UNIT   1016 AT TIME STEP      6, STRESS PERIOD      3

 HEAD WILL BE SAVED ON UNIT 1017 AT END OF TIME STEP    6, STRESS PERIOD    3
 UBDSV1 SAVING           STO-SS ON UNIT   1016 AT TIME STEP      7, STRESS PERIOD      3
 UBDSV1 SAVING           STO-SY ON UNIT   1016 AT TIME STEP      7, STRESS PERIOD      3
 UBDSV1 SAVING     FLOW-JA-FACE ON UNIT   1016 AT TIME STEP      7, STRESS PERIOD      3
 UBDSV06 SAVING              RCH IN MODEL TEST_TRANS       PACKAGE TEST_TRANS      CONNECTED TO MODEL TEST_TRANS       PACKAGE RCHA             ON UNIT   1016 AT TIME STEP      7, STRESS PERIOD      3
 UBDSV06 SAVING              CHD IN MODEL TEST_TRANS       PACKAGE TEST_TRANS      CONNECTED TO MODEL TEST_TRANS       PACKAGE CHD              ON UNIT   1016 AT TIME STEP      7, STRESS PERIOD      3

 HEAD WILL BE SAVED ON UNIT 1017 AT END OF TIME STEP    7, STRESS PERIOD    3
 UBDSV1 SAVING           STO-SS ON UNIT   1016 AT TIME STEP      8, STRESS PERIOD      3
 UBDSV1 SAVING           STO-SY ON UNIT   1016 AT TIME STEP      8, STRESS PERIOD      3
 UBDSV1 SAVING     FLOW-JA-FACE ON UNIT   1016 AT TIME STEP      8, STRESS PERIOD      3
 UBDSV06 SAVING              RCH IN MODEL TEST_TRANS       PACKAGE TEST_TRANS      CONNECTED TO MODEL TEST_TRANS       PACKAGE RCHA             ON UNIT   1016 AT TIME STEP      8, STRESS PERIOD      3
 UBDSV06 SAVING              CHD IN MODEL TEST_TRANS       PACKAGE TEST_TRANS      CONNECTED TO MODEL TEST_TRANS       PACKAGE CHD              ON UNIT   1016 AT TIME STEP      8, STRESS PERIOD      3

 HEAD WILL BE SAVED ON UNIT 1017 AT END OF TIME STEP    8, STRESS PERIOD    3
 UBDSV1 SAVING           STO-SS ON UNIT   1016 AT TIME STEP      9, STRESS PERIOD      3
 UBDSV1 SAVING           STO-SY ON UNIT   1016 AT TIME STEP      9, STRESS PERIOD      3
 UBDSV1 SAVING     FLOW-JA-FACE ON UNIT   1016 AT TIME STEP      9, STRESS PERIOD      3
 UBDSV06 SAVING              RCH IN MODEL TEST_TRANS       PACKAGE TEST_TRANS      CONNECTED TO MODEL TEST_TRANS       PACKAGE RCHA             ON UNIT   1016 AT TIME STEP      9, STRESS PERIOD      3
 UBDSV06 SAVING              CHD IN MODEL TEST_TRANS       PACKAGE TEST_TRANS      CONNECTED TO MODEL TEST_TRANS       PACKAGE CHD              ON UNIT   1016 AT TIME STEP      9, STRESS PERIOD      3

 HEAD WILL BE SAVED ON UNIT 1017 AT END OF TIME STEP    9, STRESS PERIOD    3
 UBDSV1 SAVING           STO-SS ON UNIT   1016 AT TIME STEP     10, STRESS PERIOD      3
 UBDSV1 SAVING           STO-SY ON UNIT   1016 AT TIME STEP     10, STRESS PERIOD      3
 UBDSV1 SAVING     FLOW-JA-FACE ON UNIT   1016 AT TIME STEP     10, STRESS PERIOD      3
 UBDSV06 SAVING              RCH IN MODEL TEST_TRANS       PACKAGE TEST_TRANS      CONNECTED TO MODEL TEST_TRANS       PACKAGE RCHA             ON UNIT   1016 AT TIME STEP     10, STRESS PERIOD      3
 UBDSV06 SAVING              CHD IN MODEL TEST_TRANS       PACKAGE TEST_TRANS      CONNECTED TO MODEL TEST_TRANS       PACKAGE CHD              ON UNIT   1016 AT TIME STEP     10, STRESS PERIOD      3
1
  HEAD IN LAYER   1 AT END OF TIME STEP  10 IN STRESS PERIOD    3
  ---------------------------------------------------------------------------

            1           2           3           4           5           6           7           8           9          10
           11          12          13          14          15          16          17          18          19          20
           21          22          23          24          25          26          27          28          29          30
 ........................................................................................................................
   1    28.69       28.68       28.67       28.66       28.63       28.61       28.57       28.53       28.48       28.43    
        28.37       28.31       28.24       28.16       28.07       27.97       27.87       27.76       27.64       27.51    
        27.37       27.21       27.04       26.86       26.66       26.44       26.20       25.92       25.61       25.23    
   2    28.69       28.68       28.67       28.66       28.63       28.61       28.57       28.53       28.48       28.43    
        28.37       28.31       28.24       28.16       28.07       27.97       27.87       27.76       27.64       27.51    
        27.37       27.21       27.04       26.86       26.66       26.44       26.20       25.92       25.61       25.23    
   3    28.69       28.68       28.67       28.66       28.63       28.61       28.57       28.53       28.48       28.43    
        28.37       28.31       28.24       28.16       28.07       27.97       27.87       27.76       27.64       27.51    
        27.37       27.21       27.04       26.86       26.66       26.44       26.20       25.92       25.61       25.23    
   4    28.69       28.68       28.67       28.66       28.63       28.61       28.57       28.53       28.48       28.43    
        28.37       28.31       28.24       28.16       28.07       27.97       27.87       27.76       27.64       27.51    
        27.37       27.21       27.04       26.86       26.66       26.44       26.20       25.92       25.61       25.23    
   5    28.69       28.68       28.67       28.66       28.63       28.61       28.57       28.53       28.48       28.43    
        28.37       28.31       28.24       28.16       28.07       27.97       27.87       27.76       27.64       27.51    
        27.37       27.21       27.04       26.86       26.66       26.44       26.20       25.92       25.61       25.23    
   6    28.69       28.68       28.67       28.66       28.63       28.61       28.57       28.53       28.48       28.43    
        28.37       28.31       28.24       28.16       28.07       27.97       27.87       27.76       27.64       27.51    
        27.37       27.21       27.04       26.86       26.66       26.44       26.20       25.92       25.61       25.23    
   7    28.69       28.68       28.67       28.66       28.63       28.61       28.57       28.53       28.48       28.43    
        28.37       28.31       28.24       28.16       28.07       27.97       27.87       27.76       27.64       27.51    
        27.37       27.21       27.04       26.86       26.66       26.44       26.20       25.92       25.61       25.23    
   8    28.69       28.68       28.67       28.66       28.63       28.61       28.57       28.53       28.48       28.43    
        28.37       28.31       28.24       28.16       28.07       27.97       27.87       27.76       27.64       27.51    
[...]
 UBDSV06 SAVING              RCH IN MODEL TEST_TRANS       PACKAGE TEST_TRANS      CONNECTED TO MODEL TEST_TRANS       PACKAGE RCHA             ON UNIT   1016 AT TIME STEP      3, STRESS PERIOD     36
 UBDSV06 SAVING              CHD IN MODEL TEST_TRANS       PACKAGE TEST_TRANS      CONNECTED TO MODEL TEST_TRANS       PACKAGE CHD              ON UNIT   1016 AT TIME STEP      3, STRESS PERIOD     36

 HEAD WILL BE SAVED ON UNIT 1017 AT END OF TIME STEP    3, STRESS PERIOD   36
 UBDSV1 SAVING           STO-SS ON UNIT   1016 AT TIME STEP      4, STRESS PERIOD     36
 UBDSV1 SAVING           STO-SY ON UNIT   1016 AT TIME STEP      4, STRESS PERIOD     36
 UBDSV1 SAVING     FLOW-JA-FACE ON UNIT   1016 AT TIME STEP      4, STRESS PERIOD     36
 UBDSV06 SAVING              RCH IN MODEL TEST_TRANS       PACKAGE TEST_TRANS      CONNECTED TO MODEL TEST_TRANS       PACKAGE RCHA             ON UNIT   1016 AT TIME STEP      4, STRESS PERIOD     36
 UBDSV06 SAVING              CHD IN MODEL TEST_TRANS       PACKAGE TEST_TRANS      CONNECTED TO MODEL TEST_TRANS       PACKAGE CHD              ON UNIT   1016 AT TIME STEP      4, STRESS PERIOD     36

 HEAD WILL BE SAVED ON UNIT 1017 AT END OF TIME STEP    4, STRESS PERIOD   36
 UBDSV1 SAVING           STO-SS ON UNIT   1016 AT TIME STEP      5, STRESS PERIOD     36
 UBDSV1 SAVING           STO-SY ON UNIT   1016 AT TIME STEP      5, STRESS PERIOD     36
 UBDSV1 SAVING     FLOW-JA-FACE ON UNIT   1016 AT TIME STEP      5, STRESS PERIOD     36
 UBDSV06 SAVING              RCH IN MODEL TEST_TRANS       PACKAGE TEST_TRANS      CONNECTED TO MODEL TEST_TRANS       PACKAGE RCHA             ON UNIT   1016 AT TIME STEP      5, STRESS PERIOD     36
 UBDSV06 SAVING              CHD IN MODEL TEST_TRANS       PACKAGE TEST_TRANS      CONNECTED TO MODEL TEST_TRANS       PACKAGE CHD              ON UNIT   1016 AT TIME STEP      5, STRESS PERIOD     36

 HEAD WILL BE SAVED ON UNIT 1017 AT END OF TIME STEP    5, STRESS PERIOD   36
 UBDSV1 SAVING           STO-SS ON UNIT   1016 AT TIME STEP      6, STRESS PERIOD     36
 UBDSV1 SAVING           STO-SY ON UNIT   1016 AT TIME STEP      6, STRESS PERIOD     36
 UBDSV1 SAVING     FLOW-JA-FACE ON UNIT   1016 AT TIME STEP      6, STRESS PERIOD     36
 UBDSV06 SAVING              RCH IN MODEL TEST_TRANS       PACKAGE TEST_TRANS      CONNECTED TO MODEL TEST_TRANS       PACKAGE RCHA             ON UNIT   1016 AT TIME STEP      6, STRESS PERIOD     36
 UBDSV06 SAVING              CHD IN MODEL TEST_TRANS       PACKAGE TEST_TRANS      CONNECTED TO MODEL TEST_TRANS       PACKAGE CHD              ON UNIT   1016 AT TIME STEP      6, STRESS PERIOD     36

 HEAD WILL BE SAVED ON UNIT 1017 AT END OF TIME STEP    6, STRESS PERIOD   36
 UBDSV1 SAVING           STO-SS ON UNIT   1016 AT TIME STEP      7, STRESS PERIOD     36
 UBDSV1 SAVING           STO-SY ON UNIT   1016 AT TIME STEP      7, STRESS PERIOD     36
 UBDSV1 SAVING     FLOW-JA-FACE ON UNIT   1016 AT TIME STEP      7, STRESS PERIOD     36
 UBDSV06 SAVING              RCH IN MODEL TEST_TRANS       PACKAGE TEST_TRANS      CONNECTED TO MODEL TEST_TRANS       PACKAGE RCHA             ON UNIT   1016 AT TIME STEP      7, STRESS PERIOD     36
 UBDSV06 SAVING              CHD IN MODEL TEST_TRANS       PACKAGE TEST_TRANS      CONNECTED TO MODEL TEST_TRANS       PACKAGE CHD              ON UNIT   1016 AT TIME STEP      7, STRESS PERIOD     36

 HEAD WILL BE SAVED ON UNIT 1017 AT END OF TIME STEP    7, STRESS PERIOD   36
 UBDSV1 SAVING           STO-SS ON UNIT   1016 AT TIME STEP      8, STRESS PERIOD     36
 UBDSV1 SAVING           STO-SY ON UNIT   1016 AT TIME STEP      8, STRESS PERIOD     36
 UBDSV1 SAVING     FLOW-JA-FACE ON UNIT   1016 AT TIME STEP      8, STRESS PERIOD     36
 UBDSV06 SAVING              RCH IN MODEL TEST_TRANS       PACKAGE TEST_TRANS      CONNECTED TO MODEL TEST_TRANS       PACKAGE RCHA             ON UNIT   1016 AT TIME STEP      8, STRESS PERIOD     36
 UBDSV06 SAVING              CHD IN MODEL TEST_TRANS       PACKAGE TEST_TRANS      CONNECTED TO MODEL TEST_TRANS       PACKAGE CHD              ON UNIT   1016 AT TIME STEP      8, STRESS PERIOD     36

 HEAD WILL BE SAVED ON UNIT 1017 AT END OF TIME STEP    8, STRESS PERIOD   36
 UBDSV1 SAVING           STO-SS ON UNIT   1016 AT TIME STEP      9, STRESS PERIOD     36
 UBDSV1 SAVING           STO-SY ON UNIT   1016 AT TIME STEP      9, STRESS PERIOD     36
 UBDSV1 SAVING     FLOW-JA-FACE ON UNIT   1016 AT TIME STEP      9, STRESS PERIOD     36
 UBDSV06 SAVING              RCH IN MODEL TEST_TRANS       PACKAGE TEST_TRANS      CONNECTED TO MODEL TEST_TRANS       PACKAGE RCHA             ON UNIT   1016 AT TIME STEP      9, STRESS PERIOD     36
 UBDSV06 SAVING              CHD IN MODEL TEST_TRANS       PACKAGE TEST_TRANS      CONNECTED TO MODEL TEST_TRANS       PACKAGE CHD              ON UNIT   1016 AT TIME STEP      9, STRESS PERIOD     36

 HEAD WILL BE SAVED ON UNIT 1017 AT END OF TIME STEP    9, STRESS PERIOD   36
 UBDSV1 SAVING           STO-SS ON UNIT   1016 AT TIME STEP     10, STRESS PERIOD     36
 UBDSV1 SAVING           STO-SY ON UNIT   1016 AT TIME STEP     10, STRESS PERIOD     36
 UBDSV1 SAVING     FLOW-JA-FACE ON UNIT   1016 AT TIME STEP     10, STRESS PERIOD     36
 UBDSV06 SAVING              RCH IN MODEL TEST_TRANS       PACKAGE TEST_TRANS      CONNECTED TO MODEL TEST_TRANS       PACKAGE RCHA             ON UNIT   1016 AT TIME STEP     10, STRESS PERIOD     36
 UBDSV06 SAVING              CHD IN MODEL TEST_TRANS       PACKAGE TEST_TRANS      CONNECTED TO MODEL TEST_TRANS       PACKAGE CHD              ON UNIT   1016 AT TIME STEP     10, STRESS PERIOD     36
1
  HEAD IN LAYER   1 AT END OF TIME STEP  10 IN STRESS PERIOD   36
  ---------------------------------------------------------------------------

            1           2           3           4           5           6           7           8           9          10
           11          12          13          14          15          16          17          18          19          20
           21          22          23          24          25          26          27          28          29          30
 ........................................................................................................................
   1    27.92       27.92       27.91       27.89       27.87       27.85       27.82       27.78       27.74       27.69    
        27.64       27.58       27.52       27.44       27.37       27.28       27.18       27.08       26.97       26.84    
        26.71       26.56       26.39       26.21       26.01       25.78       25.52       25.21       24.84       24.34    
   2    27.92       27.92       27.91       27.89       27.87       27.85       27.82       27.78       27.74       27.69    
        27.64       27.58       27.52       27.44       27.37       27.28       27.18       27.08       26.97       26.84    
        26.71       26.56       26.39       26.21       26.01       25.78       25.52       25.21       24.84       24.34    
   3    27.92       27.92       27.91       27.89       27.87       27.85       27.82       27.78       27.74       27.69    
        27.64       27.58       27.52       27.44       27.37       27.28       27.18       27.08       26.97       26.84    
        26.71       26.56       26.39       26.21       26.01       25.78       25.52       25.21       24.84       24.34    
   4    27.92       27.92       27.91       27.89       27.87       27.85       27.82       27.78       27.74       27.69    
        27.64       27.58       27.52       27.44       27.37       27.28       27.18       27.08       26.97       26.84    
        26.71       26.56       26.39       26.21       26.01       25.78       25.52       25.21       24.84       24.34    
   5    27.92       27.92       27.91       27.89       27.87       27.85       27.82       27.78       27.74       27.69    
        27.64       27.58       27.52       27.44       27.37       27.28       27.18       27.08       26.97       26.84    
        26.71       26.56       26.39       26.21       26.01       25.78       25.52       25.21       24.84       24.34    
   6    27.92       27.92       27.91       27.89       27.87       27.85       27.82       27.78       27.74       27.69    
        27.64       27.58       27.52       27.44       27.37       27.28       27.18       27.08       26.97       26.84    
        26.71       26.56       26.39       26.21       26.01       25.78       25.52       25.21       24.84       24.34    
   7    27.92       27.92       27.91       27.89       27.87       27.85       27.82       27.78       27.74       27.69    
        27.64       27.58       27.52       27.44       27.37       27.28       27.18       27.08       26.97       26.84    
        26.71       26.56       26.39       26.21       26.01       25.78       25.52       25.21       24.84       24.34    
   8    27.92       27.92       27.91       27.89       27.87       27.85       27.82       27.78       27.74       27.69    
        27.64       27.58       27.52       27.44       27.37       27.28       27.18       27.08       26.97       26.84    
        26.71       26.56       26.39       26.21       26.01       25.78       25.52       25.21       24.84       24.34    
   9    27.92       27.92       27.91       27.89       27.87       27.85       27.82       27.78       27.74       27.69    
        27.64       27.58       27.52       27.44       27.37       27.28       27.18       27.08       26.97       26.84    
        26.71       26.56       26.39       26.21       26.01       25.78       25.52       25.21       24.84       24.34    
  10    27.92       27.92       27.91       27.89       27.87       27.85       27.82       27.78       27.74       27.69    
        27.64       27.58       27.52       27.44       27.37       27.28       27.18       27.08       26.97       26.84    
        26.71       26.56       26.39       26.21       26.01       25.78       25.52       25.21       24.84       24.34    
  11    27.92       27.92       27.91       27.89       27.87       27.85       27.82       27.78       27.74       27.69    
        27.64       27.58       27.52       27.44       27.37       27.28       27.18       27.08       26.97       26.84    
        26.71       26.56       26.39       26.21       26.01       25.78       25.52       25.21       24.84       24.34    
  12    27.92       27.92       27.91       27.89       27.87       27.85       27.82       27.78       27.74       27.69    
        27.64       27.58       27.52       27.44       27.37       27.28       27.18       27.08       26.97       26.84    
        26.71       26.56       26.39       26.21       26.01       25.78       25.52       25.21       24.84       24.34    
  13    27.92       27.92       27.91       27.89       27.87       27.85       27.82       27.78       27.74       27.69    
        27.64       27.58       27.52       27.44       27.37       27.28       27.18       27.08       26.97       26.84    
        26.71       26.56       26.39       26.21       26.01       25.78       25.52       25.21       24.84       24.34    
  14    27.92       27.92       27.91       27.89       27.87       27.85       27.82       27.78       27.74       27.69    
        27.64       27.58       27.52       27.44       27.37       27.28       27.18       27.08       26.97       26.84    
        26.71       26.56       26.39       26.21       26.01       25.78       25.52       25.21       24.84       24.34    
  15    27.92       27.92       27.91       27.89       27.87       27.85       27.82       27.78       27.74       27.69    
        27.64       27.58       27.52       27.44       27.37       27.28       27.18       27.08       26.97       26.84    
        26.71       26.56       26.39       26.21       26.01       25.78       25.52       25.21       24.84       24.34    
  16    27.92       27.92       27.91       27.89       27.87       27.85       27.82       27.78       27.74       27.69    
        27.64       27.58       27.52       27.44       27.37       27.28       27.18       27.08       26.97       26.84    
        26.71       26.56       26.39       26.21       26.01       25.78       25.52       25.21       24.84       24.34    
  17    27.92       27.92       27.91       27.89       27.87       27.85       27.82       27.78       27.74       27.69    
        27.64       27.58       27.52       27.44       27.37       27.28       27.18       27.08       26.97       26.84    
        26.71       26.56       26.39       26.21       26.01       25.78       25.52       25.21       24.84       24.34    
  18    27.92       27.92       27.91       27.89       27.87       27.85       27.82       27.78       27.74       27.69    
        27.64       27.58       27.52       27.44       27.37       27.28       27.18       27.08       26.97       26.84    
        26.71       26.56       26.39       26.21       26.01       25.78       25.52       25.21       24.84       24.34    
  19    27.92       27.92       27.91       27.89       27.87       27.85       27.82       27.78       27.74       27.69    
        27.64       27.58       27.52       27.44       27.37       27.28       27.18       27.08       26.97       26.84    
        26.71       26.56       26.39       26.21       26.01       25.78       25.52       25.21       24.84       24.34    
  20    27.92       27.92       27.91       27.89       27.87       27.85       27.82       27.78       27.74       27.69    
        27.64       27.58       27.52       27.44       27.37       27.28       27.18       27.08       26.97       26.84    
        26.71       26.56       26.39       26.21       26.01       25.78       25.52       25.21       24.84       24.34    
  21    27.92       27.92       27.91       27.89       27.87       27.85       27.82       27.78       27.74       27.69    
        27.64       27.58       27.52       27.44       27.37       27.28       27.18       27.08       26.97       26.84    
        26.71       26.56       26.39       26.21       26.01       25.78       25.52       25.21       24.84       24.34    
  22    27.92       27.92       27.91       27.89       27.87       27.85       27.82       27.78       27.74       27.69    
        27.64       27.58       27.52       27.44       27.37       27.28       27.18       27.08       26.97       26.84    
        26.71       26.56       26.39       26.21       26.01       25.78       25.52       25.21       24.84       24.34    
  23    27.92       27.92       27.91       27.89       27.87       27.85       27.82       27.78       27.74       27.69    
        27.64       27.58       27.52       27.44       27.37       27.28       27.18       27.08       26.97       26.84    
        26.71       26.56       26.39       26.21       26.01       25.78       25.52       25.21       24.84       24.34    
  24    27.92       27.92       27.91       27.89       27.87       27.85       27.82       27.78       27.74       27.69    
        27.64       27.58       27.52       27.44       27.37       27.28       27.18       27.08       26.97       26.84    
        26.71       26.56       26.39       26.21       26.01       25.78       25.52       25.21       24.84       24.34    
  25    27.92       27.92       27.91       27.89       27.87       27.85       27.82       27.78       27.74       27.69    
        27.64       27.58       27.52       27.44       27.37       27.28       27.18       27.08       26.97       26.84    
        26.71       26.56       26.39       26.21       26.01       25.78       25.52       25.21       24.84       24.34    
  26    27.92       27.92       27.91       27.89       27.87       27.85       27.82       27.78       27.74       27.69    
        27.64       27.58       27.52       27.44       27.37       27.28       27.18       27.08       26.97       26.84    
        26.71       26.56       26.39       26.21       26.01       25.78       25.52       25.21       24.84       24.34    
  27    27.92       27.92       27.91       27.89       27.87       27.85       27.82       27.78       27.74       27.69    
        27.64       27.58       27.52       27.44       27.37       27.28       27.18       27.08       26.97       26.84    
        26.71       26.56       26.39       26.21       26.01       25.78       25.52       25.21       24.84       24.34    
  28    27.92       27.92       27.91       27.89       27.87       27.85       27.82       27.78       27.74       27.69    
        27.64       27.58       27.52       27.44       27.37       27.28       27.18       27.08       26.97       26.84    
        26.71       26.56       26.39       26.21       26.01       25.78       25.52       25.21       24.84       24.34    
  29    27.92       27.92       27.91       27.89       27.87       27.85       27.82       27.78       27.74       27.69    
        27.64       27.58       27.52       27.44       27.37       27.28       27.18       27.08       26.97       26.84    
        26.71       26.56       26.39       26.21       26.01       25.78       25.52       25.21       24.84       24.34    
  30    27.92       27.92       27.91       27.89       27.87       27.85       27.82       27.78       27.74       27.69    
        27.64       27.58       27.52       27.44       27.37       27.28       27.18       27.08       26.97       26.84    
        26.71       26.56       26.39       26.21       26.01       25.78       25.52       25.21       24.84       24.34    

 HEAD WILL BE SAVED ON UNIT 1017 AT END OF TIME STEP   10, STRESS PERIOD   36


  VOLUME BUDGET FOR ENTIRE MODEL AT END OF TIME STEP   10, STRESS PERIOD  36
  ---------------------------------------------------------------------------------------------------

     CUMULATIVE VOLUME      L**3       RATES FOR THIS TIME STEP      L**3/T          PACKAGE NAME    
     ------------------                 ------------------------                     ----------------

           IN:                                      IN:
           ---                                      ---
              STO-SS =          56.5744                STO-SS =           0.0000     STORAGE         
              STO-SY =       35976.5458                STO-SY =           0.0000     STORAGE         
                 RCH =      172212.4024                   RCH =         238.3565     RCHA            
                 CHD =           0.0000                   CHD =           0.0000     CHD             

            TOTAL IN =      208245.5227              TOTAL IN =         238.3565

          OUT:                                     OUT:
          ----                                     ----
              STO-SS =          38.0263                STO-SS =       5.7030E-02     STORAGE         
              STO-SY =       24342.0753                STO-SY =          35.7486     STORAGE         
                 RCH =           0.0000                   RCH =           0.0000     RCHA            
                 CHD =      183864.7360                   CHD =         202.5595     CHD             

           TOTAL OUT =      208244.8376             TOTAL OUT =         238.3651

            IN - OUT =           0.6851              IN - OUT =      -8.5433E-03

 PERCENT DISCREPANCY =           0.00     PERCENT DISCREPANCY =          -0.00




         TIME SUMMARY AT END OF TIME STEP   10 IN STRESS PERIOD   36
                    SECONDS     MINUTES      HOURS       DAYS        YEARS
                    -----------------------------------------------------------
   TIME STEP LENGTH 2.59200E+05  4320.0      72.000      3.0000     8.21355E-03
 STRESS PERIOD TIME 2.59200E+06  43200.      720.00      30.000     8.21355E-02
         TOTAL TIME 9.08064E+07 1.51344E+06  25224.      1051.0      2.8775    
