                                   MODFLOW 6
                U.S. GEOLOGICAL SURVEY MODULAR HYDROLOGIC MODEL
                            VERSION 6.0.4 03/13/2019

   MODFLOW 6 compiled Mar 21 2019 15:37:31 with IFORT compiler (ver. 19.0.0)

This software has been approved for release by the U.S. Geological 
Survey (USGS). Although the software has been subjected to rigorous 
review, the USGS reserves the right to update the software as needed 
pursuant to further analysis and review. No warranty, expressed or 
implied, is made by the USGS or the U.S. Government as to the 
functionality of the software and related material nor shall the 
fact of release constitute any such warranty. Furthermore, the 
software is released on condition that neither the USGS nor the U.S. 
Government shall be held liable for any damages resulting from its 
authorized or unauthorized use. Also refer to the USGS Water 
Resources Software User Rights Notice for complete use, copyright, 
and distribution information.


System command used to initiate simulation:
../../exe/mf6

MODFLOW was compiled using uniform precision.
Real Variables
  PRECISION: 15
  KIND: 8
  TINY (smallest non-zero value):    2.225074-308
  HUGE (largest value):    1.797693+308
Integer Variables
  KIND: 4
  HUGE (largest value): 2147483647
  BIT_SIZE: 32
 

 OPENED mfsim.nam
 FILE TYPE:NAM   UNIT 1001   STATUS:OLD                 
 FORMAT:FORMATTED              ACCESS:SEQUENTIAL          
 ACTION:READ                


 READING SIMULATION OPTIONS
 END OF SIMULATION OPTIONS

 READING SIMULATION TIMING

 OPENED first2D_mf6.tdis
 FILE TYPE:TDIS   UNIT 1002   STATUS:OLD                 
 FORMAT:FORMATTED              ACCESS:SEQUENTIAL          
 ACTION:READ                


 TDIS -- TEMPORAL DISCRETIZATION PACKAGE,
 VERSION 1 : 11/13/2014 - INPUT READ FROM UNIT 1002
 PROCESSING TDIS OPTIONS
    SIMULATION TIME UNIT IS SECONDS
 END OF TDIS OPTIONS
 PROCESSING TDIS DIMENSIONS
   24 STRESS PERIOD(S) IN SIMULATION
 END OF TDIS DIMENSIONS
 PROCESSING TDIS PERIODDATA


 STRESS PERIOD     LENGTH       TIME STEPS     MULTIPLIER FOR DELT
 ----------------------------------------------------------------------------
        1         1.000000          1                    1.000
        2         2592000.          5                    1.000
        3         2592000.          5                    1.000
        4         2592000.          5                    1.000
        5         2592000.          5                    1.000
        6         2592000.          5                    1.000
        7         2592000.          5                    1.000
        8         2592000.          5                    1.000
        9         2592000.          5                    1.000
       10         2592000.          5                    1.000
       11         2592000.          5                    1.000
       12         2592000.          5                    1.000
       13         2592000.          5                    1.000
       14         2592000.          5                    1.000
       15         2592000.          5                    1.000
       16         2592000.          5                    1.000
       17         2592000.          5                    1.000
       18         2592000.          5                    1.000
       19         2592000.          5                    1.000
       20         2592000.          5                    1.000
       21         2592000.          5                    1.000
       22         2592000.          5                    1.000
       23         2592000.          5                    1.000
       24         2592000.          5                    1.000
 END OF TDIS PERIODDATA
 END OF SIMULATION TIMING

 READING SIMULATION MODELS
    GWF6 model 2D_TRANS will be created as model 1
 END OF SIMULATION MODELS

 READING SIMULATION EXCHANGES
 END OF SIMULATION EXCHANGES

 READING SOLUTIONGROUP

 Creating solution: SLN_1           

 OPENED first2D_mf6.ims
 FILE TYPE:IMS   UNIT 1021   STATUS:OLD                 
 FORMAT:FORMATTED              ACCESS:SEQUENTIAL          
 ACTION:READ                

 END OF SIMULATION SOLUTIONGROUP

 IMS -- ITERATIVE MODEL SOLUTION PACKAGE, VERSION 6, 4/28/2017
         INPUT READ FROM UNIT 1021

 PROCESSING IMS OPTIONS
 MODERATE OPTION:
 DEFAULT SOLVER INPUT VALUES REFLECT MODERETELY NONLINEAR MODEL
 END OF IMS OPTIONS
 **UNDER-RELAXATION WILL BE USED***
 
 ***IMS LINEAR SOLVER WILL BE USED***

 IMSLINEAR -- UNSTRUCTURED LINEAR SOLUTION PACKAGE, VERSION 8, 04/28/2017
 
 OUTER ITERATION CONVERGENCE CRITERION     (HCLOSE) =    0.100000E-01
 OUTER ITERATION BOUNDARY FLOW RESIDUAL (RCLOSEBND) =    0.100000E+00
 MAXIMUM NUMBER OF OUTER ITERATIONS        (MXITER) =        50
 SOLVER PRINTOUT INDEX                     (IPRIMS) =         1
 NONLINEAR ITERATION METHOD            (NONLINMETH) =         3
 LINEAR SOLUTION METHOD                   (LINMETH) =         1
 UNDER-RELAXATION WEIGHT REDUCTION FACTOR   (THETA) =    0.900000E+00
 UNDER-RELAXATION WEIGHT INCREASE INCREMENT (KAPPA) =    0.100000E-03
 UNDER-RELAXATION PREVIOUS HISTORY FACTOR   (GAMMA) =    0.000000E+00
 UNDER-RELAXATIONMOMENTUM TERM          (AMOMENTUM) =    0.000000E+00
    MAXIMUM NUMBER OF BACKTRACKS         (NUMTRACK) =         0

       SOLUTION BY THE BICONJUGATE-GRADIENT STABILIZED METHOD
 ------------------------------------------------------------------
 MAXIMUM OF     50 CALLS OF SOLUTION ROUTINE
 MAXIMUM OF    100 INTERNAL ITERATIONS PER CALL TO SOLUTION ROUTINE
 LINEAR ACCELERATION METHOD            = BCGS      
 MATRIX PRECONDITIONING TYPE           = MOD. INCOMPLETE LU  
 MATRIX SCALING APPROACH               = NO SCALING          
 MATRIX REORDERING APPROACH            = ORIGINAL ORDERING        
 NUMBER OF ORTHOGONALIZATIONS          =        0
 HEAD CHANGE CRITERION FOR CLOSURE     =    0.10000E-01
 RESIDUAL CHANGE CRITERION FOR CLOSURE =    0.10000E+00
 RESIDUAL CONVERGENCE OPTION           =        0
 RESIDUAL CONVERGENCE NORM             = INFINITY NORM   
 RELAXATION FACTOR                     =    0.97000E+00



1
                            STRESS PERIOD NO.    1, LENGTH =   1.000000    
                            -----------------------------------------------

                              NUMBER OF TIME STEPS =     1

                               MULTIPLIER FOR DELT =     1.000

                            INITIAL TIME STEP SIZE =   1.000000    


 OUTER ITERATION SUMMARY
 ---------------------------------------------------------------------------------------
                       OUTER     INNER         MAXIMUM                    MAXIMUM CHANGE
                   ITERATION ITERATION          CHANGE                    MODEL-(CELLID)
 ---------------------------------------------------------------------------------------
 Linear Solver             1        28     294.697                     1_GWF-(1,109,143)
 Under-relaxation          1               294.697                     1_GWF-(1,109,143)
 Linear Solver             2         1    6.217589E-03                   1_GWF-(1,72,71)

 2 CALLS TO NUMERICAL SOLUTION IN TIME STEP 1 STRESS PERIOD 1
 29 TOTAL ITERATIONS
1
                            STRESS PERIOD NO.    2, LENGTH =   2592000.    
                            -----------------------------------------------

                              NUMBER OF TIME STEPS =     5

                               MULTIPLIER FOR DELT =     1.000

                            INITIAL TIME STEP SIZE =   518400.0    


 OUTER ITERATION SUMMARY
 ---------------------------------------------------------------------------------------
                       OUTER     INNER         MAXIMUM                    MAXIMUM CHANGE
                   ITERATION ITERATION          CHANGE                    MODEL-(CELLID)
 ---------------------------------------------------------------------------------------
 Linear Solver             1         4     4.61407                      1_GWF-(1,100,57)
 Under-relaxation          1               4.61407                      1_GWF-(1,100,57)
 Linear Solver             2         2    0.218673                     1_GWF-(1,127,115)
 Under-relaxation          2              0.218673                     1_GWF-(1,127,115)
 Linear Solver             3         1   -6.641473E-03                  1_GWF-(1,100,57)

 3 CALLS TO NUMERICAL SOLUTION IN TIME STEP 1 STRESS PERIOD 2
 7 TOTAL ITERATIONS


 OUTER ITERATION SUMMARY
 ---------------------------------------------------------------------------------------
                       OUTER     INNER         MAXIMUM                    MAXIMUM CHANGE
                   ITERATION ITERATION          CHANGE                    MODEL-(CELLID)
 ---------------------------------------------------------------------------------------
 Linear Solver             1         3     1.46477                      1_GWF-(1,100,57)
 Under-relaxation          1               1.46477                      1_GWF-(1,100,57)
 Linear Solver             2         2    8.198922E-02                 1_GWF-(1,127,112)
 Under-relaxation          2              8.198922E-02                 1_GWF-(1,127,112)
 Linear Solver             3         1   -3.024662E-03                  1_GWF-(1,100,57)

 3 CALLS TO NUMERICAL SOLUTION IN TIME STEP 2 STRESS PERIOD 2
 6 TOTAL ITERATIONS


 OUTER ITERATION SUMMARY
 ---------------------------------------------------------------------------------------
                       OUTER     INNER         MAXIMUM                    MAXIMUM CHANGE
                   ITERATION ITERATION          CHANGE                    MODEL-(CELLID)
 ---------------------------------------------------------------------------------------
 Linear Solver             1         3    0.737483                      1_GWF-(1,100,57)
 Under-relaxation          1              0.737483                      1_GWF-(1,100,57)
 Linear Solver             2         2   -3.443099E-02                  1_GWF-(1,100,57)
 Under-relaxation          2             -3.098789E-02                  1_GWF-(1,100,57)
 Linear Solver             3         1   -1.752798E-03                  1_GWF-(1,100,57)

 3 CALLS TO NUMERICAL SOLUTION IN TIME STEP 3 STRESS PERIOD 2
 6 TOTAL ITERATIONS


 OUTER ITERATION SUMMARY
 ---------------------------------------------------------------------------------------
                       OUTER     INNER         MAXIMUM                    MAXIMUM CHANGE
                   ITERATION ITERATION          CHANGE                    MODEL-(CELLID)
 ---------------------------------------------------------------------------------------
 Linear Solver             1         3    0.483367                      1_GWF-(1,100,57)
 Under-relaxation          1              0.483367                      1_GWF-(1,100,57)
 Linear Solver             2         2    4.689149E-02                 1_GWF-(1,128,112)
 Under-relaxation          2              4.689149E-02                 1_GWF-(1,128,112)
 Linear Solver             3         1   -1.262322E-03                  1_GWF-(1,100,57)

 3 CALLS TO NUMERICAL SOLUTION IN TIME STEP 4 STRESS PERIOD 2
 6 TOTAL ITERATIONS


 OUTER ITERATION SUMMARY
 ---------------------------------------------------------------------------------------
                       OUTER     INNER         MAXIMUM                    MAXIMUM CHANGE
                   ITERATION ITERATION          CHANGE                    MODEL-(CELLID)
 ---------------------------------------------------------------------------------------
 Linear Solver             1         2    0.358083                      1_GWF-(1,100,57)
 Under-relaxation          1              0.358083                      1_GWF-(1,100,57)
 Linear Solver             2         2    7.076696E-02                 1_GWF-(1,125,113)
 Under-relaxation          2              7.076696E-02                 1_GWF-(1,125,113)
 Linear Solver             3         1   -1.022823E-03                  1_GWF-(1,100,57)

 3 CALLS TO NUMERICAL SOLUTION IN TIME STEP 5 STRESS PERIOD 2
 5 TOTAL ITERATIONS
1
                            STRESS PERIOD NO.    3, LENGTH =   2592000.    
                            -----------------------------------------------

                              NUMBER OF TIME STEPS =     5

                               MULTIPLIER FOR DELT =     1.000

                            INITIAL TIME STEP SIZE =   518400.0    


 OUTER ITERATION SUMMARY
 ---------------------------------------------------------------------------------------
                       OUTER     INNER         MAXIMUM                    MAXIMUM CHANGE
                   ITERATION ITERATION          CHANGE                    MODEL-(CELLID)
 ---------------------------------------------------------------------------------------
 Linear Solver             1         4   -0.539057                      1_GWF-(1,100,57)
 Under-relaxation          1             -0.539057                      1_GWF-(1,100,57)
 Linear Solver             2         2    1.183815E-02                   1_GWF-(1,94,45)
 Under-relaxation          2              1.065433E-02                   1_GWF-(1,94,45)
 Linear Solver             3         1    7.502264E-04                   1_GWF-(1,94,45)

 3 CALLS TO NUMERICAL SOLUTION IN TIME STEP 1 STRESS PERIOD 3
 7 TOTAL ITERATIONS


 OUTER ITERATION SUMMARY
 ---------------------------------------------------------------------------------------
                       OUTER     INNER         MAXIMUM                    MAXIMUM CHANGE
                   ITERATION ITERATION          CHANGE                    MODEL-(CELLID)
 ---------------------------------------------------------------------------------------
 Linear Solver             1         3   -0.139951                      1_GWF-(1,48,113)
 Under-relaxation          1             -0.139951                      1_GWF-(1,48,113)
 Linear Solver             2         2    1.983893E-02                 1_GWF-(1,128,111)
 Under-relaxation          2              1.983893E-02                 1_GWF-(1,128,111)
 Linear Solver             3         1    3.547851E-04                  1_GWF-(1,100,57)

 3 CALLS TO NUMERICAL SOLUTION IN TIME STEP 2 STRESS PERIOD 3
 6 TOTAL ITERATIONS


 OUTER ITERATION SUMMARY
 ---------------------------------------------------------------------------------------
                       OUTER     INNER         MAXIMUM                    MAXIMUM CHANGE
                   ITERATION ITERATION          CHANGE                    MODEL-(CELLID)
 ---------------------------------------------------------------------------------------
 Linear Solver             1         2    9.974523E-02                  1_GWF-(1,102,55)
 Under-relaxation          1              9.974523E-02                  1_GWF-(1,102,55)
 Linear Solver             2         2    1.379790E-02                 1_GWF-(1,120,107)
 Under-relaxation          2              1.379790E-02                 1_GWF-(1,120,107)
 Linear Solver             3         1    3.368205E-04                  1_GWF-(1,50,105)

 3 CALLS TO NUMERICAL SOLUTION IN TIME STEP 3 STRESS PERIOD 3
 5 TOTAL ITERATIONS


 OUTER ITERATION SUMMARY
 ---------------------------------------------------------------------------------------
                       OUTER     INNER         MAXIMUM                    MAXIMUM CHANGE
                   ITERATION ITERATION          CHANGE                    MODEL-(CELLID)
 ---------------------------------------------------------------------------------------
 Linear Solver             1         2    9.217109E-02                 1_GWF-(1,127,114)
 Under-relaxation          1              9.217109E-02                 1_GWF-(1,127,114)
 Linear Solver             2         1   -6.407387E-03                  1_GWF-(1,102,55)

 2 CALLS TO NUMERICAL SOLUTION IN TIME STEP 4 STRESS PERIOD 3
 3 TOTAL ITERATIONS


 OUTER ITERATION SUMMARY
 ---------------------------------------------------------------------------------------
                       OUTER     INNER         MAXIMUM                    MAXIMUM CHANGE
                   ITERATION ITERATION          CHANGE                    MODEL-(CELLID)
 ---------------------------------------------------------------------------------------
 Linear Solver             1         2    7.741201E-02                  1_GWF-(1,103,57)
 Under-relaxation          1              7.741201E-02                  1_GWF-(1,103,57)
 Linear Solver             2         1   -5.799112E-03                  1_GWF-(1,103,56)

 2 CALLS TO NUMERICAL SOLUTION IN TIME STEP 5 STRESS PERIOD 3
 3 TOTAL ITERATIONS
1
                            STRESS PERIOD NO.    4, LENGTH =   2592000.    
                            -----------------------------------------------

                              NUMBER OF TIME STEPS =     5

                               MULTIPLIER FOR DELT =     1.000

                            INITIAL TIME STEP SIZE =   518400.0    


 OUTER ITERATION SUMMARY
 ---------------------------------------------------------------------------------------
                       OUTER     INNER         MAXIMUM                    MAXIMUM CHANGE
                   ITERATION ITERATION          CHANGE                    MODEL-(CELLID)
 ---------------------------------------------------------------------------------------
 Linear Solver             1         3   -0.127954                      1_GWF-(1,153,80)
 Under-relaxation          1             -0.127954                      1_GWF-(1,153,80)
 Linear Solver             2         1    6.552630E-03                  1_GWF-(1,151,80)

 2 CALLS TO NUMERICAL SOLUTION IN TIME STEP 1 STRESS PERIOD 4
 4 TOTAL ITERATIONS


 OUTER ITERATION SUMMARY
 ---------------------------------------------------------------------------------------
                       OUTER     INNER         MAXIMUM                    MAXIMUM CHANGE
                   ITERATION ITERATION          CHANGE                    MODEL-(CELLID)
 ---------------------------------------------------------------------------------------
 Linear Solver             1         2   -7.915218E-02                  1_GWF-(1,48,112)
 Under-relaxation          1             -7.915218E-02                  1_GWF-(1,48,112)
 Linear Solver             2         2    1.511120E-02                  1_GWF-(1,46,108)
 Under-relaxation          2              1.360008E-02                  1_GWF-(1,46,108)
 Linear Solver             3         1    1.301631E-03                  1_GWF-(1,46,108)

 3 CALLS TO NUMERICAL SOLUTION IN TIME STEP 2 STRESS PERIOD 4
 5 TOTAL ITERATIONS


 OUTER ITERATION SUMMARY
 ---------------------------------------------------------------------------------------
                       OUTER     INNER         MAXIMUM                    MAXIMUM CHANGE
                   ITERATION ITERATION          CHANGE                    MODEL-(CELLID)
 ---------------------------------------------------------------------------------------
 Linear Solver             1         2   -6.079831E-02                  1_GWF-(1,39,111)
 Under-relaxation          1             -6.079831E-02                  1_GWF-(1,39,111)
 Linear Solver             2         1    5.920992E-03                  1_GWF-(1,165,60)

 2 CALLS TO NUMERICAL SOLUTION IN TIME STEP 3 STRESS PERIOD 4
 3 TOTAL ITERATIONS


 OUTER ITERATION SUMMARY
 ---------------------------------------------------------------------------------------
                       OUTER     INNER         MAXIMUM                    MAXIMUM CHANGE
                   ITERATION ITERATION          CHANGE                    MODEL-(CELLID)
 ---------------------------------------------------------------------------------------
 Linear Solver             1         2    5.723600E-02                 1_GWF-(1,127,113)
 Under-relaxation          1              5.723600E-02                 1_GWF-(1,127,113)
 Linear Solver             2         1    5.875810E-03                  1_GWF-(1,165,60)

 2 CALLS TO NUMERICAL SOLUTION IN TIME STEP 4 STRESS PERIOD 4
 3 TOTAL ITERATIONS


 OUTER ITERATION SUMMARY
 ---------------------------------------------------------------------------------------
                       OUTER     INNER         MAXIMUM                    MAXIMUM CHANGE
                   ITERATION ITERATION          CHANGE                    MODEL-(CELLID)
 ---------------------------------------------------------------------------------------
 Linear Solver             1         2   -4.872028E-02                  1_GWF-(1,39,111)
 Under-relaxation          1             -4.872028E-02                  1_GWF-(1,39,111)
 Linear Solver             2         1    5.811325E-03                  1_GWF-(1,165,60)

 2 CALLS TO NUMERICAL SOLUTION IN TIME STEP 5 STRESS PERIOD 4
 3 TOTAL ITERATIONS
1
                            STRESS PERIOD NO.    5, LENGTH =   2592000.    
                            -----------------------------------------------

                              NUMBER OF TIME STEPS =     5

                               MULTIPLIER FOR DELT =     1.000

                            INITIAL TIME STEP SIZE =   518400.0    


 OUTER ITERATION SUMMARY
 ---------------------------------------------------------------------------------------
                       OUTER     INNER         MAXIMUM                    MAXIMUM CHANGE
                   ITERATION ITERATION          CHANGE                    MODEL-(CELLID)
 ---------------------------------------------------------------------------------------
 Linear Solver             1         4    -2.49594                      1_GWF-(1,100,57)
 Under-relaxation          1              -2.49594                      1_GWF-(1,100,57)
 Linear Solver             2         2    0.163783                     1_GWF-(1,127,113)
 Under-relaxation          2              0.147405                     1_GWF-(1,127,113)
 Linear Solver             3         2    1.542127E-02                 1_GWF-(1,127,113)
 Under-relaxation          3              1.388069E-02                 1_GWF-(1,127,113)
 Linear Solver             4         1    1.453895E-03                 1_GWF-(1,127,113)

 4 CALLS TO NUMERICAL SOLUTION IN TIME STEP 1 STRESS PERIOD 5
 9 TOTAL ITERATIONS


 OUTER ITERATION SUMMARY
 ---------------------------------------------------------------------------------------
                       OUTER     INNER         MAXIMUM                    MAXIMUM CHANGE
                   ITERATION ITERATION          CHANGE                    MODEL-(CELLID)
 ---------------------------------------------------------------------------------------
 Linear Solver             1         3   -0.739963                      1_GWF-(1,100,57)
 Under-relaxation          1             -0.739963                      1_GWF-(1,100,57)
 Linear Solver             2         2    2.308076E-02                  1_GWF-(1,100,57)
 Under-relaxation          2              2.077269E-02                  1_GWF-(1,100,57)
 Linear Solver             3         1    1.383575E-03                  1_GWF-(1,100,57)

 3 CALLS TO NUMERICAL SOLUTION IN TIME STEP 2 STRESS PERIOD 5
 6 TOTAL ITERATIONS


 OUTER ITERATION SUMMARY
 ---------------------------------------------------------------------------------------
                       OUTER     INNER         MAXIMUM                    MAXIMUM CHANGE
                   ITERATION ITERATION          CHANGE                    MODEL-(CELLID)
 ---------------------------------------------------------------------------------------
 Linear Solver             1         3   -0.335147                      1_GWF-(1,100,57)
 Under-relaxation          1             -0.335147                      1_GWF-(1,100,57)
 Linear Solver             2         2    4.750314E-02                  1_GWF-(1,50,105)
 Under-relaxation          2              4.750314E-02                  1_GWF-(1,50,105)
 Linear Solver             3         1    7.341809E-04                  1_GWF-(1,100,57)

 3 CALLS TO NUMERICAL SOLUTION IN TIME STEP 3 STRESS PERIOD 5
 6 TOTAL ITERATIONS


 OUTER ITERATION SUMMARY
 ---------------------------------------------------------------------------------------
                       OUTER     INNER         MAXIMUM                    MAXIMUM CHANGE
                   ITERATION ITERATION          CHANGE                    MODEL-(CELLID)
 ---------------------------------------------------------------------------------------
 Linear Solver             1         3    0.199931                      1_GWF-(1,48,111)
 Under-relaxation          1              0.199931                      1_GWF-(1,48,111)
 Linear Solver             2         2    2.761237E-02                  1_GWF-(1,37,113)
 Under-relaxation          2              2.761237E-02                  1_GWF-(1,37,113)
 Linear Solver             3         1    4.482577E-04                  1_GWF-(1,100,57)

 3 CALLS TO NUMERICAL SOLUTION IN TIME STEP 4 STRESS PERIOD 5
 6 TOTAL ITERATIONS


 OUTER ITERATION SUMMARY
 ---------------------------------------------------------------------------------------
                       OUTER     INNER         MAXIMUM                    MAXIMUM CHANGE
                   ITERATION ITERATION          CHANGE                    MODEL-(CELLID)
 ---------------------------------------------------------------------------------------
 Linear Solver             1         3    0.220240                      1_GWF-(1,37,113)
 Under-relaxation          1              0.220240                      1_GWF-(1,37,113)
 Linear Solver             2         2    0.113633                      1_GWF-(1,43,109)
 Under-relaxation          2              0.113633                      1_GWF-(1,43,109)
 Linear Solver             3         1   -4.729458E-04                  1_GWF-(1,43,109)

 3 CALLS TO NUMERICAL SOLUTION IN TIME STEP 5 STRESS PERIOD 5
 6 TOTAL ITERATIONS
1
                            STRESS PERIOD NO.    6, LENGTH =   2592000.    
                            -----------------------------------------------

                              NUMBER OF TIME STEPS =     5

                               MULTIPLIER FOR DELT =     1.000

                            INITIAL TIME STEP SIZE =   518400.0    


 OUTER ITERATION SUMMARY
 ---------------------------------------------------------------------------------------
                       OUTER     INNER         MAXIMUM                    MAXIMUM CHANGE
                   ITERATION ITERATION          CHANGE                    MODEL-(CELLID)
 ---------------------------------------------------------------------------------------
 Linear Solver             1         4    -2.11085                      1_GWF-(1,100,57)
 Under-relaxation          1              -2.11085                      1_GWF-(1,100,57)
 Linear Solver             2         2    0.137300                     1_GWF-(1,125,112)
 Under-relaxation          2              0.123570                     1_GWF-(1,125,112)
 Linear Solver             3         2    1.293934E-02                 1_GWF-(1,125,112)
 Under-relaxation          3              1.164670E-02                 1_GWF-(1,125,112)
 Linear Solver             4         1    1.226330E-03                 1_GWF-(1,125,112)

 4 CALLS TO NUMERICAL SOLUTION IN TIME STEP 1 STRESS PERIOD 6
 9 TOTAL ITERATIONS


 OUTER ITERATION SUMMARY
 ---------------------------------------------------------------------------------------
                       OUTER     INNER         MAXIMUM                    MAXIMUM CHANGE
                   ITERATION ITERATION          CHANGE                    MODEL-(CELLID)
 ---------------------------------------------------------------------------------------
 Linear Solver             1         2   -0.722219                      1_GWF-(1,100,57)
 Under-relaxation          1             -0.722219                      1_GWF-(1,100,57)
 Linear Solver             2         2    2.637706E-02                  1_GWF-(1,100,57)
 Under-relaxation          2              2.401196E-02                  1_GWF-(1,150,80)
 Linear Solver             3         1    1.391655E-03                  1_GWF-(1,100,57)

 3 CALLS TO NUMERICAL SOLUTION IN TIME STEP 2 STRESS PERIOD 6
 5 TOTAL ITERATIONS


 OUTER ITERATION SUMMARY
 ---------------------------------------------------------------------------------------
                       OUTER     INNER         MAXIMUM                    MAXIMUM CHANGE
                   ITERATION ITERATION          CHANGE                    MODEL-(CELLID)
 ---------------------------------------------------------------------------------------
 Linear Solver             1         2   -0.387498                      1_GWF-(1,100,57)
 Under-relaxation          1             -0.387498                      1_GWF-(1,100,57)
 Linear Solver             2         2    1.837097E-02                  1_GWF-(1,100,56)
 Under-relaxation          2              1.653388E-02                  1_GWF-(1,100,56)
 Linear Solver             3         1    8.715089E-04                  1_GWF-(1,100,57)

 3 CALLS TO NUMERICAL SOLUTION IN TIME STEP 3 STRESS PERIOD 6
 5 TOTAL ITERATIONS


 OUTER ITERATION SUMMARY
 ---------------------------------------------------------------------------------------
                       OUTER     INNER         MAXIMUM                    MAXIMUM CHANGE
                   ITERATION ITERATION          CHANGE                    MODEL-(CELLID)
 ---------------------------------------------------------------------------------------
 Linear Solver             1         2   -0.262886                      1_GWF-(1,100,57)
 Under-relaxation          1             -0.262886                      1_GWF-(1,100,57)
 Linear Solver             2         2    2.771591E-02                 1_GWF-(1,125,113)
 Under-relaxation          2              2.494432E-02                 1_GWF-(1,125,113)
 Linear Solver             3         1    2.318259E-03                 1_GWF-(1,125,113)

 3 CALLS TO NUMERICAL SOLUTION IN TIME STEP 4 STRESS PERIOD 6
 5 TOTAL ITERATIONS


 OUTER ITERATION SUMMARY
 ---------------------------------------------------------------------------------------
                       OUTER     INNER         MAXIMUM                    MAXIMUM CHANGE
                   ITERATION ITERATION          CHANGE                    MODEL-(CELLID)
 ---------------------------------------------------------------------------------------
 Linear Solver             1         2   -0.197345                      1_GWF-(1,100,57)
 Under-relaxation          1             -0.197345                      1_GWF-(1,100,57)
 Linear Solver             2         2    1.164229E-02                  1_GWF-(1,118,85)
 Under-relaxation          2              1.047806E-02                  1_GWF-(1,118,85)
 Linear Solver             3         1    6.475618E-04                  1_GWF-(1,118,85)

 3 CALLS TO NUMERICAL SOLUTION IN TIME STEP 5 STRESS PERIOD 6
 5 TOTAL ITERATIONS
1
                            STRESS PERIOD NO.    7, LENGTH =   2592000.    
                            -----------------------------------------------

                              NUMBER OF TIME STEPS =     5

                               MULTIPLIER FOR DELT =     1.000

                            INITIAL TIME STEP SIZE =   518400.0    


 OUTER ITERATION SUMMARY
 ---------------------------------------------------------------------------------------
                       OUTER     INNER         MAXIMUM                    MAXIMUM CHANGE
                   ITERATION ITERATION          CHANGE                    MODEL-(CELLID)
 ---------------------------------------------------------------------------------------
 Linear Solver             1         5    -6.40545                      1_GWF-(1,100,57)
 Under-relaxation          1              -6.40545                      1_GWF-(1,100,57)
 Linear Solver             2         3    0.344994                      1_GWF-(1,43,109)
 Under-relaxation          2              0.310494                      1_GWF-(1,43,109)
 Linear Solver             3         2    3.115654E-02                  1_GWF-(1,43,109)
 Under-relaxation          3              2.804401E-02                  1_GWF-(1,43,109)
 Linear Solver             4         1    2.754327E-03                  1_GWF-(1,43,109)

 4 CALLS TO NUMERICAL SOLUTION IN TIME STEP 1 STRESS PERIOD 7
 11 TOTAL ITERATIONS


 OUTER ITERATION SUMMARY
 ---------------------------------------------------------------------------------------
                       OUTER     INNER         MAXIMUM                    MAXIMUM CHANGE
                   ITERATION ITERATION          CHANGE                    MODEL-(CELLID)
 ---------------------------------------------------------------------------------------
 Linear Solver             1         4    -2.15628                      1_GWF-(1,100,57)
 Under-relaxation          1              -2.15628                      1_GWF-(1,100,57)
 Linear Solver             2         3    0.243119                      1_GWF-(1,48,108)
 Under-relaxation          2              0.218808                      1_GWF-(1,48,108)
 Linear Solver             3         2    2.197785E-02                  1_GWF-(1,48,108)
 Under-relaxation          3              1.978226E-02                  1_GWF-(1,48,108)
 Linear Solver             4         1    1.985346E-03                  1_GWF-(1,48,108)

 4 CALLS TO NUMERICAL SOLUTION IN TIME STEP 2 STRESS PERIOD 7
 10 TOTAL ITERATIONS


 OUTER ITERATION SUMMARY
 ---------------------------------------------------------------------------------------
                       OUTER     INNER         MAXIMUM                    MAXIMUM CHANGE
                   ITERATION ITERATION          CHANGE                    MODEL-(CELLID)
 ---------------------------------------------------------------------------------------
 Linear Solver             1         4    -1.15630                      1_GWF-(1,100,57)
 Under-relaxation          1              -1.15630                      1_GWF-(1,100,57)
 Linear Solver             2         2    0.116396                      1_GWF-(1,44,109)
 Under-relaxation          2              0.104756                      1_GWF-(1,44,109)
 Linear Solver             3         1    9.859737E-03                  1_GWF-(1,44,109)

 3 CALLS TO NUMERICAL SOLUTION IN TIME STEP 3 STRESS PERIOD 7
 7 TOTAL ITERATIONS


 OUTER ITERATION SUMMARY
 ---------------------------------------------------------------------------------------
                       OUTER     INNER         MAXIMUM                    MAXIMUM CHANGE
                   ITERATION ITERATION          CHANGE                    MODEL-(CELLID)
 ---------------------------------------------------------------------------------------
 Linear Solver             1         3   -0.795379                      1_GWF-(1,100,57)
 Under-relaxation          1             -0.795379                      1_GWF-(1,100,57)
 Linear Solver             2         2    9.695217E-02                  1_GWF-(1,45,109)
 Under-relaxation          2              8.725695E-02                  1_GWF-(1,45,109)
 Linear Solver             3         1    8.267511E-03                  1_GWF-(1,45,109)

 3 CALLS TO NUMERICAL SOLUTION IN TIME STEP 4 STRESS PERIOD 7
 6 TOTAL ITERATIONS


 OUTER ITERATION SUMMARY
 ---------------------------------------------------------------------------------------
                       OUTER     INNER         MAXIMUM                    MAXIMUM CHANGE
                   ITERATION ITERATION          CHANGE                    MODEL-(CELLID)
 ---------------------------------------------------------------------------------------
 Linear Solver             1         3   -0.611662                      1_GWF-(1,100,57)
 Under-relaxation          1             -0.611662                      1_GWF-(1,100,57)
 Linear Solver             2         2    4.438742E-02                  1_GWF-(1,43,110)
 Under-relaxation          2              3.994868E-02                  1_GWF-(1,43,110)
 Linear Solver             3         1    3.906561E-03                  1_GWF-(1,43,110)

 3 CALLS TO NUMERICAL SOLUTION IN TIME STEP 5 STRESS PERIOD 7
 6 TOTAL ITERATIONS
1
                            STRESS PERIOD NO.    8, LENGTH =   2592000.    
                            -----------------------------------------------

                              NUMBER OF TIME STEPS =     5

                               MULTIPLIER FOR DELT =     1.000

                            INITIAL TIME STEP SIZE =   518400.0    


 OUTER ITERATION SUMMARY
 ---------------------------------------------------------------------------------------
                       OUTER     INNER         MAXIMUM                    MAXIMUM CHANGE
                   ITERATION ITERATION          CHANGE                    MODEL-(CELLID)
 ---------------------------------------------------------------------------------------
 Linear Solver             1         4    -4.27603                      1_GWF-(1,100,57)
 Under-relaxation          1              -4.27603                      1_GWF-(1,100,57)
 Linear Solver             2         3    0.151133                      1_GWF-(1,49,107)
 Under-relaxation          2              0.136020                      1_GWF-(1,49,107)
 Linear Solver             3         2    1.376471E-02                 1_GWF-(1,125,116)
 Under-relaxation          3              1.238961E-02                 1_GWF-(1,125,116)
 Linear Solver             4         1    1.296069E-03                 1_GWF-(1,125,116)

 4 CALLS TO NUMERICAL SOLUTION IN TIME STEP 1 STRESS PERIOD 8
 10 TOTAL ITERATIONS


 OUTER ITERATION SUMMARY
 ---------------------------------------------------------------------------------------
                       OUTER     INNER         MAXIMUM                    MAXIMUM CHANGE
                   ITERATION ITERATION          CHANGE                    MODEL-(CELLID)
 ---------------------------------------------------------------------------------------
 Linear Solver             1         4    -1.62718                      1_GWF-(1,100,57)
 Under-relaxation          1              -1.62718                      1_GWF-(1,100,57)
 Linear Solver             2         3    0.130811                      1_GWF-(1,37,114)
 Under-relaxation          2              0.117730                      1_GWF-(1,37,114)
 Linear Solver             3         2    1.256045E-02                  1_GWF-(1,37,114)
 Under-relaxation          3              1.130566E-02                  1_GWF-(1,37,114)
 Linear Solver             4         1    1.174422E-03                  1_GWF-(1,37,114)

 4 CALLS TO NUMERICAL SOLUTION IN TIME STEP 2 STRESS PERIOD 8
 10 TOTAL ITERATIONS


 OUTER ITERATION SUMMARY
 ---------------------------------------------------------------------------------------
                       OUTER     INNER         MAXIMUM                    MAXIMUM CHANGE
                   ITERATION ITERATION          CHANGE                    MODEL-(CELLID)
 ---------------------------------------------------------------------------------------
 Linear Solver             1         3   -0.977369                      1_GWF-(1,100,57)
 Under-relaxation          1             -0.977369                      1_GWF-(1,100,57)
 Linear Solver             2         4    9.790030E-02                  1_GWF-(1,47,109)
 Under-relaxation          2              8.811027E-02                  1_GWF-(1,47,109)
 Linear Solver             3         1    9.820759E-03                  1_GWF-(1,47,109)

 3 CALLS TO NUMERICAL SOLUTION IN TIME STEP 3 STRESS PERIOD 8
 8 TOTAL ITERATIONS


 OUTER ITERATION SUMMARY
 ---------------------------------------------------------------------------------------
                       OUTER     INNER         MAXIMUM                    MAXIMUM CHANGE
                   ITERATION ITERATION          CHANGE                    MODEL-(CELLID)
 ---------------------------------------------------------------------------------------
 Linear Solver             1         6    -1.00942                      1_GWF-(1,172,72)
 Under-relaxation          1              -1.00942                      1_GWF-(1,172,72)
 Linear Solver             2         3   -0.175537                      1_GWF-(1,132,60)
 Under-relaxation          2             -0.175537                      1_GWF-(1,132,60)
 Linear Solver             3         1    8.728502E-03                  1_GWF-(1,173,72)

 3 CALLS TO NUMERICAL SOLUTION IN TIME STEP 4 STRESS PERIOD 8
 10 TOTAL ITERATIONS


 OUTER ITERATION SUMMARY
 ---------------------------------------------------------------------------------------
                       OUTER     INNER         MAXIMUM                    MAXIMUM CHANGE
                   ITERATION ITERATION          CHANGE                    MODEL-(CELLID)
 ---------------------------------------------------------------------------------------
 Linear Solver             1         4   -0.600797                      1_GWF-(1,101,57)
 Under-relaxation          1             -0.600797                      1_GWF-(1,101,57)
 Linear Solver             2         3   -0.110041                      1_GWF-(1,152,76)
 Under-relaxation          2             -0.110041                      1_GWF-(1,152,76)
 Linear Solver             3         1    6.235427E-03                 1_GWF-(1,123,110)

 3 CALLS TO NUMERICAL SOLUTION IN TIME STEP 5 STRESS PERIOD 8
 8 TOTAL ITERATIONS
1
                            STRESS PERIOD NO.    9, LENGTH =   2592000.    
                            -----------------------------------------------

                              NUMBER OF TIME STEPS =     5

                               MULTIPLIER FOR DELT =     1.000

                            INITIAL TIME STEP SIZE =   518400.0    


 OUTER ITERATION SUMMARY
 ---------------------------------------------------------------------------------------
                       OUTER     INNER         MAXIMUM                    MAXIMUM CHANGE
                   ITERATION ITERATION          CHANGE                    MODEL-(CELLID)
 ---------------------------------------------------------------------------------------
 Linear Solver             1         5    0.913446                      1_GWF-(1,173,73)
 Under-relaxation          1              0.913446                      1_GWF-(1,173,73)
 Linear Solver             2         3    7.247539E-02                  1_GWF-(1,50,118)
 Under-relaxation          2              7.247539E-02                  1_GWF-(1,50,118)
 Linear Solver             3         1   -1.744316E-03                  1_GWF-(1,145,67)

 3 CALLS TO NUMERICAL SOLUTION IN TIME STEP 1 STRESS PERIOD 9
 9 TOTAL ITERATIONS


 OUTER ITERATION SUMMARY
 ---------------------------------------------------------------------------------------
                       OUTER     INNER         MAXIMUM                    MAXIMUM CHANGE
                   ITERATION ITERATION          CHANGE                    MODEL-(CELLID)
 ---------------------------------------------------------------------------------------
 Linear Solver             1         5   -0.389553                      1_GWF-(1,102,57)
 Under-relaxation          1             -0.389553                      1_GWF-(1,102,57)
 Linear Solver             2         3    2.662996E-02                 1_GWF-(1,123,114)
 Under-relaxation          2              2.396697E-02                 1_GWF-(1,123,114)
 Linear Solver             3         1    2.456821E-03                 1_GWF-(1,123,114)

 3 CALLS TO NUMERICAL SOLUTION IN TIME STEP 2 STRESS PERIOD 9
 9 TOTAL ITERATIONS


 OUTER ITERATION SUMMARY
 ---------------------------------------------------------------------------------------
                       OUTER     INNER         MAXIMUM                    MAXIMUM CHANGE
                   ITERATION ITERATION          CHANGE                    MODEL-(CELLID)
 ---------------------------------------------------------------------------------------
 Linear Solver             1         3   -0.348890                      1_GWF-(1,102,57)
 Under-relaxation          1             -0.348890                      1_GWF-(1,102,57)
 Linear Solver             2         2    2.842430E-02                 1_GWF-(1,130,107)
 Under-relaxation          2              2.558187E-02                 1_GWF-(1,130,107)
 Linear Solver             3         2   -1.612007E-02                  1_GWF-(1,173,72)
 Under-relaxation          3             -1.305726E-02                  1_GWF-(1,173,72)
 Linear Solver             4         1   -2.908627E-03                  1_GWF-(1,173,72)

 4 CALLS TO NUMERICAL SOLUTION IN TIME STEP 3 STRESS PERIOD 9
 8 TOTAL ITERATIONS


 OUTER ITERATION SUMMARY
 ---------------------------------------------------------------------------------------
                       OUTER     INNER         MAXIMUM                    MAXIMUM CHANGE
                   ITERATION ITERATION          CHANGE                    MODEL-(CELLID)
 ---------------------------------------------------------------------------------------
 Linear Solver             1         3   -0.315249                      1_GWF-(1,102,57)
 Under-relaxation          1             -0.315249                      1_GWF-(1,102,57)
 Linear Solver             2         3    4.948518E-02                 1_GWF-(1,130,109)
 Under-relaxation          2              4.453666E-02                 1_GWF-(1,130,109)
 Linear Solver             3         1    4.180126E-03                 1_GWF-(1,130,109)

 3 CALLS TO NUMERICAL SOLUTION IN TIME STEP 4 STRESS PERIOD 9
 7 TOTAL ITERATIONS


 OUTER ITERATION SUMMARY
 ---------------------------------------------------------------------------------------
                       OUTER     INNER         MAXIMUM                    MAXIMUM CHANGE
                   ITERATION ITERATION          CHANGE                    MODEL-(CELLID)
 ---------------------------------------------------------------------------------------
 Linear Solver             1         3   -0.291126                      1_GWF-(1,103,57)
 Under-relaxation          1             -0.291126                      1_GWF-(1,103,57)
 Linear Solver             2         4    5.390049E-02                 1_GWF-(1,128,108)
 Under-relaxation          2              4.851044E-02                 1_GWF-(1,128,108)
 Linear Solver             3         1    5.070953E-03                 1_GWF-(1,128,108)

 3 CALLS TO NUMERICAL SOLUTION IN TIME STEP 5 STRESS PERIOD 9
 8 TOTAL ITERATIONS
1
                            STRESS PERIOD NO.   10, LENGTH =   2592000.    
                            -----------------------------------------------

                              NUMBER OF TIME STEPS =     5

                               MULTIPLIER FOR DELT =     1.000

                            INITIAL TIME STEP SIZE =   518400.0    


 OUTER ITERATION SUMMARY
 ---------------------------------------------------------------------------------------
                       OUTER     INNER         MAXIMUM                    MAXIMUM CHANGE
                   ITERATION ITERATION          CHANGE                    MODEL-(CELLID)
 ---------------------------------------------------------------------------------------
 Linear Solver             1         7     12.3524                      1_GWF-(1,100,57)
 Under-relaxation          1               12.3524                      1_GWF-(1,100,57)
 Linear Solver             2         3   -0.355510                      1_GWF-(1,172,72)
 Under-relaxation          2             -0.319959                      1_GWF-(1,172,72)
 Linear Solver             3         2   -1.599679E-02                   1_GWF-(1,94,45)
 Under-relaxation          3             -1.439871E-02                   1_GWF-(1,94,45)
 Linear Solver             4         1   -1.185021E-03                  1_GWF-(1,100,57)

 4 CALLS TO NUMERICAL SOLUTION IN TIME STEP 1 STRESS PERIOD 10
 13 TOTAL ITERATIONS


 OUTER ITERATION SUMMARY
 ---------------------------------------------------------------------------------------
                       OUTER     INNER         MAXIMUM                    MAXIMUM CHANGE
                   ITERATION ITERATION          CHANGE                    MODEL-(CELLID)
 ---------------------------------------------------------------------------------------
 Linear Solver             1         3     3.76150                      1_GWF-(1,100,57)
 Under-relaxation          1               3.76150                      1_GWF-(1,100,57)
 Linear Solver             2         2   -0.123402                      1_GWF-(1,134,72)
 Under-relaxation          2             -0.111061                      1_GWF-(1,134,72)
 Linear Solver             3         1   -7.142879E-03                  1_GWF-(1,100,57)

 3 CALLS TO NUMERICAL SOLUTION IN TIME STEP 2 STRESS PERIOD 10
 6 TOTAL ITERATIONS


 OUTER ITERATION SUMMARY
 ---------------------------------------------------------------------------------------
                       OUTER     INNER         MAXIMUM                    MAXIMUM CHANGE
                   ITERATION ITERATION          CHANGE                    MODEL-(CELLID)
 ---------------------------------------------------------------------------------------
 Linear Solver             1         3     1.82700                      1_GWF-(1,100,57)
 Under-relaxation          1               1.82700                      1_GWF-(1,100,57)
 Linear Solver             2         2    0.127892                      1_GWF-(1,44,110)
 Under-relaxation          2              0.127892                      1_GWF-(1,44,110)
 Linear Solver             3         1   -4.298654E-03                  1_GWF-(1,100,57)

 3 CALLS TO NUMERICAL SOLUTION IN TIME STEP 3 STRESS PERIOD 10
 6 TOTAL ITERATIONS


 OUTER ITERATION SUMMARY
 ---------------------------------------------------------------------------------------
                       OUTER     INNER         MAXIMUM                    MAXIMUM CHANGE
                   ITERATION ITERATION          CHANGE                    MODEL-(CELLID)
 ---------------------------------------------------------------------------------------
 Linear Solver             1         3     1.16058                      1_GWF-(1,100,57)
 Under-relaxation          1               1.16058                      1_GWF-(1,100,57)
 Linear Solver             2         2    7.867663E-02                  1_GWF-(1,39,112)
 Under-relaxation          2              7.867663E-02                  1_GWF-(1,39,112)
 Linear Solver             3         1   -2.962065E-03                  1_GWF-(1,100,57)

 3 CALLS TO NUMERICAL SOLUTION IN TIME STEP 4 STRESS PERIOD 10
 6 TOTAL ITERATIONS


 OUTER ITERATION SUMMARY
 ---------------------------------------------------------------------------------------
                       OUTER     INNER         MAXIMUM                    MAXIMUM CHANGE
                   ITERATION ITERATION          CHANGE                    MODEL-(CELLID)
 ---------------------------------------------------------------------------------------
 Linear Solver             1         3    0.835378                      1_GWF-(1,100,57)
 Under-relaxation          1              0.835378                      1_GWF-(1,100,57)
 Linear Solver             2         2   -4.468221E-02                  1_GWF-(1,100,56)
 Under-relaxation          2             -4.021399E-02                  1_GWF-(1,100,56)
 Linear Solver             3         1   -2.162588E-03                  1_GWF-(1,100,57)

 3 CALLS TO NUMERICAL SOLUTION IN TIME STEP 5 STRESS PERIOD 10
 6 TOTAL ITERATIONS
1
                            STRESS PERIOD NO.   11, LENGTH =   2592000.    
                            -----------------------------------------------

                              NUMBER OF TIME STEPS =     5

                               MULTIPLIER FOR DELT =     1.000

                            INITIAL TIME STEP SIZE =   518400.0    


 OUTER ITERATION SUMMARY
 ---------------------------------------------------------------------------------------
                       OUTER     INNER         MAXIMUM                    MAXIMUM CHANGE
                   ITERATION ITERATION          CHANGE                    MODEL-(CELLID)
 ---------------------------------------------------------------------------------------
 Linear Solver             1         5     3.63141                      1_GWF-(1,100,57)
 Under-relaxation          1               3.63141                      1_GWF-(1,100,57)
 Linear Solver             2         3   -0.769088                      1_GWF-(1,132,60)
 Under-relaxation          2             -0.692179                      1_GWF-(1,132,60)
 Linear Solver             3         2    2.137711E-02                  1_GWF-(1,58,118)
 Under-relaxation          3              2.137711E-02                  1_GWF-(1,58,118)
 Linear Solver             4         1   -7.743393E-04                   1_GWF-(1,87,44)

 4 CALLS TO NUMERICAL SOLUTION IN TIME STEP 1 STRESS PERIOD 11
 11 TOTAL ITERATIONS


 OUTER ITERATION SUMMARY
 ---------------------------------------------------------------------------------------
                       OUTER     INNER         MAXIMUM                    MAXIMUM CHANGE
                   ITERATION ITERATION          CHANGE                    MODEL-(CELLID)
 ---------------------------------------------------------------------------------------
 Linear Solver             1         5     1.56636                      1_GWF-(1,100,57)
 Under-relaxation          1               1.56636                      1_GWF-(1,100,57)
 Linear Solver             2         3    0.234655                      1_GWF-(1,43,110)
 Under-relaxation          2              0.234655                      1_GWF-(1,43,110)
 Linear Solver             3         1    3.511493E-03                  1_GWF-(1,61,122)

 3 CALLS TO NUMERICAL SOLUTION IN TIME STEP 2 STRESS PERIOD 11
 9 TOTAL ITERATIONS


 OUTER ITERATION SUMMARY
 ---------------------------------------------------------------------------------------
                       OUTER     INNER         MAXIMUM                    MAXIMUM CHANGE
                   ITERATION ITERATION          CHANGE                    MODEL-(CELLID)
 ---------------------------------------------------------------------------------------
 Linear Solver             1         4     1.19102                      1_GWF-(1,43,110)
 Under-relaxation          1               1.19102                      1_GWF-(1,43,110)
 Linear Solver             2         3    0.481290                      1_GWF-(1,47,108)
 Under-relaxation          2              0.481290                      1_GWF-(1,47,108)
 Linear Solver             3         2    2.475150E-02                  1_GWF-(1,60,116)
 Under-relaxation          3              2.475150E-02                  1_GWF-(1,60,116)
 Linear Solver             4         1    2.597675E-04                  1_GWF-(1,158,76)

 4 CALLS TO NUMERICAL SOLUTION IN TIME STEP 3 STRESS PERIOD 11
 10 TOTAL ITERATIONS


 OUTER ITERATION SUMMARY
 ---------------------------------------------------------------------------------------
                       OUTER     INNER         MAXIMUM                    MAXIMUM CHANGE
                   ITERATION ITERATION          CHANGE                    MODEL-(CELLID)
 ---------------------------------------------------------------------------------------
 Linear Solver             1         4     1.46910                      1_GWF-(1,48,108)
 Under-relaxation          1               1.46910                      1_GWF-(1,48,108)
 Linear Solver             2         3     1.09545                      1_GWF-(1,48,107)
 Under-relaxation          2               1.09545                      1_GWF-(1,48,107)
 Linear Solver             3         1    5.623203E-03                  1_GWF-(1,63,124)

 3 CALLS TO NUMERICAL SOLUTION IN TIME STEP 4 STRESS PERIOD 11
 8 TOTAL ITERATIONS


 OUTER ITERATION SUMMARY
 ---------------------------------------------------------------------------------------
                       OUTER     INNER         MAXIMUM                    MAXIMUM CHANGE
                   ITERATION ITERATION          CHANGE                    MODEL-(CELLID)
 ---------------------------------------------------------------------------------------
 Linear Solver             1         4     1.85417                      1_GWF-(1,44,109)
 Under-relaxation          1               1.85417                      1_GWF-(1,44,109)
 Linear Solver             2         3    0.492627                      1_GWF-(1,45,108)
 Under-relaxation          2              0.492627                      1_GWF-(1,45,108)
 Linear Solver             3         1   -3.969252E-03                  1_GWF-(1,153,85)

 3 CALLS TO NUMERICAL SOLUTION IN TIME STEP 5 STRESS PERIOD 11
 8 TOTAL ITERATIONS
1
                            STRESS PERIOD NO.   12, LENGTH =   2592000.    
                            -----------------------------------------------

                              NUMBER OF TIME STEPS =     5

                               MULTIPLIER FOR DELT =     1.000

                            INITIAL TIME STEP SIZE =   518400.0    


 OUTER ITERATION SUMMARY
 ---------------------------------------------------------------------------------------
                       OUTER     INNER         MAXIMUM                    MAXIMUM CHANGE
                   ITERATION ITERATION          CHANGE                    MODEL-(CELLID)
 ---------------------------------------------------------------------------------------
 Linear Solver             1         4    -1.66242                      1_GWF-(1,153,80)
 Under-relaxation          1              -1.66242                      1_GWF-(1,153,80)
 Linear Solver             2         2   -9.537554E-02                  1_GWF-(1,108,18)
 Under-relaxation          2             -9.537554E-02                  1_GWF-(1,108,18)
 Linear Solver             3         1    3.745225E-03                  1_GWF-(1,49,106)

 3 CALLS TO NUMERICAL SOLUTION IN TIME STEP 1 STRESS PERIOD 12
 7 TOTAL ITERATIONS


 OUTER ITERATION SUMMARY
 ---------------------------------------------------------------------------------------
                       OUTER     INNER         MAXIMUM                    MAXIMUM CHANGE
                   ITERATION ITERATION          CHANGE                    MODEL-(CELLID)
 ---------------------------------------------------------------------------------------
 Linear Solver             1         3   -0.486755                      1_GWF-(1,48,116)
 Under-relaxation          1             -0.486755                      1_GWF-(1,48,116)
 Linear Solver             2         2    0.147930                      1_GWF-(1,43,109)
 Under-relaxation          2              0.147930                      1_GWF-(1,43,109)
 Linear Solver             3         1    2.465339E-03                  1_GWF-(1,44,110)

 3 CALLS TO NUMERICAL SOLUTION IN TIME STEP 2 STRESS PERIOD 12
 6 TOTAL ITERATIONS


 OUTER ITERATION SUMMARY
 ---------------------------------------------------------------------------------------
                       OUTER     INNER         MAXIMUM                    MAXIMUM CHANGE
                   ITERATION ITERATION          CHANGE                    MODEL-(CELLID)
 ---------------------------------------------------------------------------------------
 Linear Solver             1         3    0.433726                      1_GWF-(1,43,107)
 Under-relaxation          1              0.433726                      1_GWF-(1,43,107)
 Linear Solver             2         2    9.062591E-02                 1_GWF-(1,127,116)
 Under-relaxation          2              9.062591E-02                 1_GWF-(1,127,116)
 Linear Solver             3         1   -8.246051E-04                  1_GWF-(1,101,57)

 3 CALLS TO NUMERICAL SOLUTION IN TIME STEP 3 STRESS PERIOD 12
 6 TOTAL ITERATIONS


 OUTER ITERATION SUMMARY
 ---------------------------------------------------------------------------------------
                       OUTER     INNER         MAXIMUM                    MAXIMUM CHANGE
                   ITERATION ITERATION          CHANGE                    MODEL-(CELLID)
 ---------------------------------------------------------------------------------------
 Linear Solver             1         3    0.404901                      1_GWF-(1,43,107)
 Under-relaxation          1              0.404901                      1_GWF-(1,43,107)
 Linear Solver             2         2    9.570006E-02                 1_GWF-(1,125,109)
 Under-relaxation          2              9.570006E-02                 1_GWF-(1,125,109)
 Linear Solver             3         1   -7.265162E-04                  1_GWF-(1,102,57)

 3 CALLS TO NUMERICAL SOLUTION IN TIME STEP 4 STRESS PERIOD 12
 6 TOTAL ITERATIONS


 OUTER ITERATION SUMMARY
 ---------------------------------------------------------------------------------------
                       OUTER     INNER         MAXIMUM                    MAXIMUM CHANGE
                   ITERATION ITERATION          CHANGE                    MODEL-(CELLID)
 ---------------------------------------------------------------------------------------
 Linear Solver             1         3    0.373028                      1_GWF-(1,43,107)
 Under-relaxation          1              0.373028                      1_GWF-(1,43,107)
 Linear Solver             2         2   -1.839845E-02                  1_GWF-(1,165,59)
 Under-relaxation          2             -1.655860E-02                  1_GWF-(1,165,59)
 Linear Solver             3         1   -6.201593E-04                  1_GWF-(1,102,57)

 3 CALLS TO NUMERICAL SOLUTION IN TIME STEP 5 STRESS PERIOD 12
 6 TOTAL ITERATIONS
1
                            STRESS PERIOD NO.   13, LENGTH =   2592000.    
                            -----------------------------------------------

                              NUMBER OF TIME STEPS =     5

                               MULTIPLIER FOR DELT =     1.000

                            INITIAL TIME STEP SIZE =   518400.0    


 OUTER ITERATION SUMMARY
 ---------------------------------------------------------------------------------------
                       OUTER     INNER         MAXIMUM                    MAXIMUM CHANGE
                   ITERATION ITERATION          CHANGE                    MODEL-(CELLID)
 ---------------------------------------------------------------------------------------
 Linear Solver             1         3    0.337084                     1_GWF-(1,127,112)
 Under-relaxation          1              0.337084                     1_GWF-(1,127,112)
 Linear Solver             2         2    9.182990E-02                 1_GWF-(1,126,111)
 Under-relaxation          2              9.182990E-02                 1_GWF-(1,126,111)
 Linear Solver             3         1   -1.148548E-03                 1_GWF-(1,126,111)

 3 CALLS TO NUMERICAL SOLUTION IN TIME STEP 1 STRESS PERIOD 13
 6 TOTAL ITERATIONS


 OUTER ITERATION SUMMARY
 ---------------------------------------------------------------------------------------
                       OUTER     INNER         MAXIMUM                    MAXIMUM CHANGE
                   ITERATION ITERATION          CHANGE                    MODEL-(CELLID)
 ---------------------------------------------------------------------------------------
 Linear Solver             1         3    0.273258                      1_GWF-(1,43,107)
 Under-relaxation          1              0.273258                      1_GWF-(1,43,107)
 Linear Solver             2         2    5.540081E-02                 1_GWF-(1,125,113)
 Under-relaxation          2              5.540081E-02                 1_GWF-(1,125,113)
 Linear Solver             3         1    6.274234E-04                  1_GWF-(1,43,110)

 3 CALLS TO NUMERICAL SOLUTION IN TIME STEP 2 STRESS PERIOD 13
 6 TOTAL ITERATIONS


 OUTER ITERATION SUMMARY
 ---------------------------------------------------------------------------------------
                       OUTER     INNER         MAXIMUM                    MAXIMUM CHANGE
                   ITERATION ITERATION          CHANGE                    MODEL-(CELLID)
 ---------------------------------------------------------------------------------------
 Linear Solver             1         3    0.313487                     1_GWF-(1,125,112)
 Under-relaxation          1              0.313487                     1_GWF-(1,125,112)
 Linear Solver             2         2    3.596642E-02                 1_GWF-(1,128,112)
 Under-relaxation          2              3.596642E-02                 1_GWF-(1,128,112)
 Linear Solver             3         1   -4.114990E-04                  1_GWF-(1,103,58)

 3 CALLS TO NUMERICAL SOLUTION IN TIME STEP 3 STRESS PERIOD 13
 6 TOTAL ITERATIONS


 OUTER ITERATION SUMMARY
 ---------------------------------------------------------------------------------------
                       OUTER     INNER         MAXIMUM                    MAXIMUM CHANGE
                   ITERATION ITERATION          CHANGE                    MODEL-(CELLID)
 ---------------------------------------------------------------------------------------
 Linear Solver             1         3    0.278190                     1_GWF-(1,127,111)
 Under-relaxation          1              0.278190                     1_GWF-(1,127,111)
 Linear Solver             2         2    6.726635E-02                 1_GWF-(1,129,110)
 Under-relaxation          2              6.726635E-02                 1_GWF-(1,129,110)
 Linear Solver             3         1   -3.832310E-04                  1_GWF-(1,103,58)

 3 CALLS TO NUMERICAL SOLUTION IN TIME STEP 4 STRESS PERIOD 13
 6 TOTAL ITERATIONS


 OUTER ITERATION SUMMARY
 ---------------------------------------------------------------------------------------
                       OUTER     INNER         MAXIMUM                    MAXIMUM CHANGE
                   ITERATION ITERATION          CHANGE                    MODEL-(CELLID)
 ---------------------------------------------------------------------------------------
 Linear Solver             1         3    0.195297                     1_GWF-(1,128,111)
 Under-relaxation          1              0.195297                     1_GWF-(1,128,111)
 Linear Solver             2         2    6.481348E-02                 1_GWF-(1,127,114)
 Under-relaxation          2              6.481348E-02                 1_GWF-(1,127,114)
 Linear Solver             3         1   -3.737073E-04                 1_GWF-(1,127,114)

 3 CALLS TO NUMERICAL SOLUTION IN TIME STEP 5 STRESS PERIOD 13
 6 TOTAL ITERATIONS
1
                            STRESS PERIOD NO.   14, LENGTH =   2592000.    
                            -----------------------------------------------

                              NUMBER OF TIME STEPS =     5

                               MULTIPLIER FOR DELT =     1.000

                            INITIAL TIME STEP SIZE =   518400.0    


 OUTER ITERATION SUMMARY
 ---------------------------------------------------------------------------------------
                       OUTER     INNER         MAXIMUM                    MAXIMUM CHANGE
                   ITERATION ITERATION          CHANGE                    MODEL-(CELLID)
 ---------------------------------------------------------------------------------------
 Linear Solver             1         3   -0.275539                      1_GWF-(1,153,80)
 Under-relaxation          1             -0.275539                      1_GWF-(1,153,80)
 Linear Solver             2         2    5.256251E-02                 1_GWF-(1,127,113)
 Under-relaxation          2              5.256251E-02                 1_GWF-(1,127,113)
 Linear Solver             3         1   -3.746337E-04                  1_GWF-(1,110,15)

 3 CALLS TO NUMERICAL SOLUTION IN TIME STEP 1 STRESS PERIOD 14
 6 TOTAL ITERATIONS


 OUTER ITERATION SUMMARY
 ---------------------------------------------------------------------------------------
                       OUTER     INNER         MAXIMUM                    MAXIMUM CHANGE
                   ITERATION ITERATION          CHANGE                    MODEL-(CELLID)
 ---------------------------------------------------------------------------------------
 Linear Solver             1         3    0.171179                     1_GWF-(1,127,113)
 Under-relaxation          1              0.171179                     1_GWF-(1,127,113)
 Linear Solver             2         2   -2.494977E-02                  1_GWF-(1,115,60)
 Under-relaxation          2             -2.245479E-02                  1_GWF-(1,115,60)
 Linear Solver             3         1   -9.665299E-04                  1_GWF-(1,115,60)

 3 CALLS TO NUMERICAL SOLUTION IN TIME STEP 2 STRESS PERIOD 14
 6 TOTAL ITERATIONS


 OUTER ITERATION SUMMARY
 ---------------------------------------------------------------------------------------
                       OUTER     INNER         MAXIMUM                    MAXIMUM CHANGE
                   ITERATION ITERATION          CHANGE                    MODEL-(CELLID)
 ---------------------------------------------------------------------------------------
 Linear Solver             1         3    0.134785                     1_GWF-(1,128,113)
 Under-relaxation          1              0.134785                     1_GWF-(1,128,113)
 Linear Solver             2         1    8.629517E-03                  1_GWF-(1,109,16)

 2 CALLS TO NUMERICAL SOLUTION IN TIME STEP 3 STRESS PERIOD 14
 4 TOTAL ITERATIONS


 OUTER ITERATION SUMMARY
 ---------------------------------------------------------------------------------------
                       OUTER     INNER         MAXIMUM                    MAXIMUM CHANGE
                   ITERATION ITERATION          CHANGE                    MODEL-(CELLID)
 ---------------------------------------------------------------------------------------
 Linear Solver             1         2    0.118584                     1_GWF-(1,128,113)
 Under-relaxation          1              0.118584                     1_GWF-(1,128,113)
 Linear Solver             2         1   -8.167193E-03                  1_GWF-(1,117,61)

 2 CALLS TO NUMERICAL SOLUTION IN TIME STEP 4 STRESS PERIOD 14
 3 TOTAL ITERATIONS


 OUTER ITERATION SUMMARY
 ---------------------------------------------------------------------------------------
                       OUTER     INNER         MAXIMUM                    MAXIMUM CHANGE
                   ITERATION ITERATION          CHANGE                    MODEL-(CELLID)
 ---------------------------------------------------------------------------------------
 Linear Solver             1         2    0.106024                     1_GWF-(1,128,113)
 Under-relaxation          1              0.106024                     1_GWF-(1,128,113)
 Linear Solver             2         2    3.023763E-02                 1_GWF-(1,125,114)
 Under-relaxation          2              3.023763E-02                 1_GWF-(1,125,114)
 Linear Solver             3         1   -3.143214E-04                  1_GWF-(1,110,15)

 3 CALLS TO NUMERICAL SOLUTION IN TIME STEP 5 STRESS PERIOD 14
 5 TOTAL ITERATIONS
1
                            STRESS PERIOD NO.   15, LENGTH =   2592000.    
                            -----------------------------------------------

                              NUMBER OF TIME STEPS =     5

                               MULTIPLIER FOR DELT =     1.000

                            INITIAL TIME STEP SIZE =   518400.0    


 OUTER ITERATION SUMMARY
 ---------------------------------------------------------------------------------------
                       OUTER     INNER         MAXIMUM                    MAXIMUM CHANGE
                   ITERATION ITERATION          CHANGE                    MODEL-(CELLID)
 ---------------------------------------------------------------------------------------
 Linear Solver             1         4   -0.762875                      1_GWF-(1,100,57)
 Under-relaxation          1             -0.762875                      1_GWF-(1,100,57)
 Linear Solver             2         2    1.839897E-02                   1_GWF-(1,94,45)
 Under-relaxation          2              1.655908E-02                   1_GWF-(1,94,45)
 Linear Solver             3         1    1.014158E-03                   1_GWF-(1,94,45)

 3 CALLS TO NUMERICAL SOLUTION IN TIME STEP 1 STRESS PERIOD 15
 7 TOTAL ITERATIONS


 OUTER ITERATION SUMMARY
 ---------------------------------------------------------------------------------------
                       OUTER     INNER         MAXIMUM                    MAXIMUM CHANGE
                   ITERATION ITERATION          CHANGE                    MODEL-(CELLID)
 ---------------------------------------------------------------------------------------
 Linear Solver             1         3   -0.239394                      1_GWF-(1,47,112)
 Under-relaxation          1             -0.239394                      1_GWF-(1,47,112)
 Linear Solver             2         2    1.111052E-02                  1_GWF-(1,110,15)
 Under-relaxation          2              9.999466E-03                  1_GWF-(1,110,15)
 Linear Solver             3         1   -7.134959E-04                  1_GWF-(1,108,15)

 3 CALLS TO NUMERICAL SOLUTION IN TIME STEP 2 STRESS PERIOD 15
 6 TOTAL ITERATIONS


 OUTER ITERATION SUMMARY
 ---------------------------------------------------------------------------------------
                       OUTER     INNER         MAXIMUM                    MAXIMUM CHANGE
                   ITERATION ITERATION          CHANGE                    MODEL-(CELLID)
 ---------------------------------------------------------------------------------------
 Linear Solver             1         5   -0.185154                      1_GWF-(1,39,111)
 Under-relaxation          1             -0.185154                      1_GWF-(1,39,111)
 Linear Solver             2         2    4.497260E-02                  1_GWF-(1,42,109)
 Under-relaxation          2              4.047534E-02                  1_GWF-(1,42,109)
 Linear Solver             3         1    3.926945E-03                  1_GWF-(1,42,109)

 3 CALLS TO NUMERICAL SOLUTION IN TIME STEP 3 STRESS PERIOD 15
 8 TOTAL ITERATIONS


 OUTER ITERATION SUMMARY
 ---------------------------------------------------------------------------------------
                       OUTER     INNER         MAXIMUM                    MAXIMUM CHANGE
                   ITERATION ITERATION          CHANGE                    MODEL-(CELLID)
 ---------------------------------------------------------------------------------------
 Linear Solver             1         3   -0.161037                      1_GWF-(1,39,111)
 Under-relaxation          1             -0.161037                      1_GWF-(1,39,111)
 Linear Solver             2         2    1.387323E-02                  1_GWF-(1,109,15)
 Under-relaxation          2              1.248590E-02                  1_GWF-(1,109,15)
 Linear Solver             3         1    7.118517E-04                  1_GWF-(1,108,15)

 3 CALLS TO NUMERICAL SOLUTION IN TIME STEP 4 STRESS PERIOD 15
 6 TOTAL ITERATIONS


 OUTER ITERATION SUMMARY
 ---------------------------------------------------------------------------------------
                       OUTER     INNER         MAXIMUM                    MAXIMUM CHANGE
                   ITERATION ITERATION          CHANGE                    MODEL-(CELLID)
 ---------------------------------------------------------------------------------------
 Linear Solver             1         2   -0.141428                      1_GWF-(1,39,111)
 Under-relaxation          1             -0.141428                      1_GWF-(1,39,111)
 Linear Solver             2         1    9.248347E-03                  1_GWF-(1,110,15)

 2 CALLS TO NUMERICAL SOLUTION IN TIME STEP 5 STRESS PERIOD 15
 3 TOTAL ITERATIONS
1
                            STRESS PERIOD NO.   16, LENGTH =   2592000.    
                            -----------------------------------------------

                              NUMBER OF TIME STEPS =     5

                               MULTIPLIER FOR DELT =     1.000

                            INITIAL TIME STEP SIZE =   518400.0    


 OUTER ITERATION SUMMARY
 ---------------------------------------------------------------------------------------
                       OUTER     INNER         MAXIMUM                    MAXIMUM CHANGE
                   ITERATION ITERATION          CHANGE                    MODEL-(CELLID)
 ---------------------------------------------------------------------------------------
 Linear Solver             1         3   -0.165582                      1_GWF-(1,46,111)
 Under-relaxation          1             -0.165582                      1_GWF-(1,46,111)
 Linear Solver             2         2    1.768396E-02                  1_GWF-(1,49,105)
 Under-relaxation          2              1.591556E-02                  1_GWF-(1,49,105)
 Linear Solver             3         1    1.623035E-03                  1_GWF-(1,59,111)

 3 CALLS TO NUMERICAL SOLUTION IN TIME STEP 1 STRESS PERIOD 16
 6 TOTAL ITERATIONS


 OUTER ITERATION SUMMARY
 ---------------------------------------------------------------------------------------
                       OUTER     INNER         MAXIMUM                    MAXIMUM CHANGE
                   ITERATION ITERATION          CHANGE                    MODEL-(CELLID)
 ---------------------------------------------------------------------------------------
 Linear Solver             1         2   -0.142249                      1_GWF-(1,39,111)
 Under-relaxation          1             -0.142249                      1_GWF-(1,39,111)
 Linear Solver             2         2    3.868071E-02                  1_GWF-(1,150,80)
 Under-relaxation          2              3.481264E-02                  1_GWF-(1,150,80)
 Linear Solver             3         1   -9.598418E-04                  1_GWF-(1,149,81)

 3 CALLS TO NUMERICAL SOLUTION IN TIME STEP 2 STRESS PERIOD 16
 5 TOTAL ITERATIONS


 OUTER ITERATION SUMMARY
 ---------------------------------------------------------------------------------------
                       OUTER     INNER         MAXIMUM                    MAXIMUM CHANGE
                   ITERATION ITERATION          CHANGE                    MODEL-(CELLID)
 ---------------------------------------------------------------------------------------
 Linear Solver             1         2   -0.127584                      1_GWF-(1,39,111)
 Under-relaxation          1             -0.127584                      1_GWF-(1,39,111)
 Linear Solver             2         2    2.867837E-02                  1_GWF-(1,37,113)
 Under-relaxation          2              2.581053E-02                  1_GWF-(1,37,113)
 Linear Solver             3         1    2.715502E-03                  1_GWF-(1,37,113)

 3 CALLS TO NUMERICAL SOLUTION IN TIME STEP 3 STRESS PERIOD 16
 5 TOTAL ITERATIONS


 OUTER ITERATION SUMMARY
 ---------------------------------------------------------------------------------------
                       OUTER     INNER         MAXIMUM                    MAXIMUM CHANGE
                   ITERATION ITERATION          CHANGE                    MODEL-(CELLID)
 ---------------------------------------------------------------------------------------
 Linear Solver             1         2   -0.109703                      1_GWF-(1,39,111)
 Under-relaxation          1             -0.109703                      1_GWF-(1,39,111)
 Linear Solver             2         1    9.457685E-03                  1_GWF-(1,53,104)

 2 CALLS TO NUMERICAL SOLUTION IN TIME STEP 4 STRESS PERIOD 16
 3 TOTAL ITERATIONS


 OUTER ITERATION SUMMARY
 ---------------------------------------------------------------------------------------
[...]
 Linear Solver             1         5    0.900702                      1_GWF-(1,173,73)
 Under-relaxation          1              0.900702                      1_GWF-(1,173,73)
 Linear Solver             2         3    8.218725E-02                  1_GWF-(1,50,118)
 Under-relaxation          2              8.218725E-02                  1_GWF-(1,50,118)
 Linear Solver             3         1   -1.872675E-03                  1_GWF-(1,163,61)

 3 CALLS TO NUMERICAL SOLUTION IN TIME STEP 1 STRESS PERIOD 21
 9 TOTAL ITERATIONS


 OUTER ITERATION SUMMARY
 ---------------------------------------------------------------------------------------
                       OUTER     INNER         MAXIMUM                    MAXIMUM CHANGE
                   ITERATION ITERATION          CHANGE                    MODEL-(CELLID)
 ---------------------------------------------------------------------------------------
 Linear Solver             1         5   -0.394258                      1_GWF-(1,102,57)
 Under-relaxation          1             -0.394258                      1_GWF-(1,102,57)
 Linear Solver             2         3   -3.590356E-02                  1_GWF-(1,152,76)
 Under-relaxation          2             -3.590356E-02                  1_GWF-(1,152,76)
 Linear Solver             3         1    1.564024E-03                 1_GWF-(1,116,110)

 3 CALLS TO NUMERICAL SOLUTION IN TIME STEP 2 STRESS PERIOD 21
 9 TOTAL ITERATIONS


 OUTER ITERATION SUMMARY
 ---------------------------------------------------------------------------------------
                       OUTER     INNER         MAXIMUM                    MAXIMUM CHANGE
                   ITERATION ITERATION          CHANGE                    MODEL-(CELLID)
 ---------------------------------------------------------------------------------------
 Linear Solver             1         3   -0.353406                      1_GWF-(1,102,57)
 Under-relaxation          1             -0.353406                      1_GWF-(1,102,57)
 Linear Solver             2         2   -4.315731E-02                  1_GWF-(1,166,80)
 Under-relaxation          2             -4.315731E-02                  1_GWF-(1,166,80)
 Linear Solver             3         1   -4.335090E-03                  1_GWF-(1,173,72)

 3 CALLS TO NUMERICAL SOLUTION IN TIME STEP 3 STRESS PERIOD 21
 6 TOTAL ITERATIONS


 OUTER ITERATION SUMMARY
 ---------------------------------------------------------------------------------------
                       OUTER     INNER         MAXIMUM                    MAXIMUM CHANGE
                   ITERATION ITERATION          CHANGE                    MODEL-(CELLID)
 ---------------------------------------------------------------------------------------
 Linear Solver             1         3   -0.319448                      1_GWF-(1,102,57)
 Under-relaxation          1             -0.319448                      1_GWF-(1,102,57)
 Linear Solver             2         3    3.276334E-02                 1_GWF-(1,119,109)
 Under-relaxation          2              2.948701E-02                 1_GWF-(1,119,109)
 Linear Solver             3         1    3.196673E-03                 1_GWF-(1,119,109)

 3 CALLS TO NUMERICAL SOLUTION IN TIME STEP 4 STRESS PERIOD 21
 7 TOTAL ITERATIONS


 OUTER ITERATION SUMMARY
 ---------------------------------------------------------------------------------------
                       OUTER     INNER         MAXIMUM                    MAXIMUM CHANGE
                   ITERATION ITERATION          CHANGE                    MODEL-(CELLID)
 ---------------------------------------------------------------------------------------
 Linear Solver             1         3   -0.295468                      1_GWF-(1,103,57)
 Under-relaxation          1             -0.295468                      1_GWF-(1,103,57)
 Linear Solver             2         2    2.429457E-02                 1_GWF-(1,130,108)
 Under-relaxation          2              2.186511E-02                 1_GWF-(1,130,108)
 Linear Solver             3         1   -3.034605E-03                  1_GWF-(1,173,72)

 3 CALLS TO NUMERICAL SOLUTION IN TIME STEP 5 STRESS PERIOD 21
 6 TOTAL ITERATIONS
1
                            STRESS PERIOD NO.   22, LENGTH =   2592000.    
                            -----------------------------------------------

                              NUMBER OF TIME STEPS =     5

                               MULTIPLIER FOR DELT =     1.000

                            INITIAL TIME STEP SIZE =   518400.0    


 OUTER ITERATION SUMMARY
 ---------------------------------------------------------------------------------------
                       OUTER     INNER         MAXIMUM                    MAXIMUM CHANGE
                   ITERATION ITERATION          CHANGE                    MODEL-(CELLID)
 ---------------------------------------------------------------------------------------
 Linear Solver             1         7     12.3492                      1_GWF-(1,100,57)
 Under-relaxation          1               12.3492                      1_GWF-(1,100,57)
 Linear Solver             2         3   -0.491242                      1_GWF-(1,172,72)
 Under-relaxation          2             -0.442117                      1_GWF-(1,172,72)
 Linear Solver             3         2   -1.598760E-02                   1_GWF-(1,94,45)
 Under-relaxation          3             -1.439044E-02                   1_GWF-(1,94,45)
 Linear Solver             4         1   -1.184415E-03                  1_GWF-(1,100,57)

 4 CALLS TO NUMERICAL SOLUTION IN TIME STEP 1 STRESS PERIOD 22
 13 TOTAL ITERATIONS


 OUTER ITERATION SUMMARY
 ---------------------------------------------------------------------------------------
                       OUTER     INNER         MAXIMUM                    MAXIMUM CHANGE
                   ITERATION ITERATION          CHANGE                    MODEL-(CELLID)
 ---------------------------------------------------------------------------------------
 Linear Solver             1         3     3.75896                      1_GWF-(1,100,57)
 Under-relaxation          1               3.75896                      1_GWF-(1,100,57)
 Linear Solver             2         2   -0.123300                      1_GWF-(1,134,72)
 Under-relaxation          2             -0.110970                      1_GWF-(1,134,72)
 Linear Solver             3         1   -7.152738E-03                  1_GWF-(1,100,57)

 3 CALLS TO NUMERICAL SOLUTION IN TIME STEP 2 STRESS PERIOD 22
 6 TOTAL ITERATIONS


 OUTER ITERATION SUMMARY
 ---------------------------------------------------------------------------------------
                       OUTER     INNER         MAXIMUM                    MAXIMUM CHANGE
                   ITERATION ITERATION          CHANGE                    MODEL-(CELLID)
 ---------------------------------------------------------------------------------------
 Linear Solver             1         3     1.82456                      1_GWF-(1,100,57)
 Under-relaxation          1               1.82456                      1_GWF-(1,100,57)
 Linear Solver             2         2    0.237067                      1_GWF-(1,44,110)
 Under-relaxation          2              0.237067                      1_GWF-(1,44,110)
 Linear Solver             3         1   -4.311547E-03                  1_GWF-(1,100,57)

 3 CALLS TO NUMERICAL SOLUTION IN TIME STEP 3 STRESS PERIOD 22
 6 TOTAL ITERATIONS


 OUTER ITERATION SUMMARY
 ---------------------------------------------------------------------------------------
                       OUTER     INNER         MAXIMUM                    MAXIMUM CHANGE
                   ITERATION ITERATION          CHANGE                    MODEL-(CELLID)
 ---------------------------------------------------------------------------------------
 Linear Solver             1         3     1.15825                      1_GWF-(1,100,57)
 Under-relaxation          1               1.15825                      1_GWF-(1,100,57)
 Linear Solver             2         2    0.112704                      1_GWF-(1,39,112)
 Under-relaxation          2              0.112704                      1_GWF-(1,39,112)
 Linear Solver             3         1   -2.959727E-03                  1_GWF-(1,100,57)

 3 CALLS TO NUMERICAL SOLUTION IN TIME STEP 4 STRESS PERIOD 22
 6 TOTAL ITERATIONS


 OUTER ITERATION SUMMARY
 ---------------------------------------------------------------------------------------
                       OUTER     INNER         MAXIMUM                    MAXIMUM CHANGE
                   ITERATION ITERATION          CHANGE                    MODEL-(CELLID)
 ---------------------------------------------------------------------------------------
 Linear Solver             1         3    0.833089                      1_GWF-(1,100,57)
 Under-relaxation          1              0.833089                      1_GWF-(1,100,57)
 Linear Solver             2         2    5.179442E-02                 1_GWF-(1,123,114)
 Under-relaxation          2              5.179442E-02                 1_GWF-(1,123,114)
 Linear Solver             3         1   -2.151934E-03                  1_GWF-(1,100,57)

 3 CALLS TO NUMERICAL SOLUTION IN TIME STEP 5 STRESS PERIOD 22
 6 TOTAL ITERATIONS
1
                            STRESS PERIOD NO.   23, LENGTH =   2592000.    
                            -----------------------------------------------

                              NUMBER OF TIME STEPS =     5

                               MULTIPLIER FOR DELT =     1.000

                            INITIAL TIME STEP SIZE =   518400.0    


 OUTER ITERATION SUMMARY
 ---------------------------------------------------------------------------------------
                       OUTER     INNER         MAXIMUM                    MAXIMUM CHANGE
                   ITERATION ITERATION          CHANGE                    MODEL-(CELLID)
 ---------------------------------------------------------------------------------------
 Linear Solver             1         5     3.62916                      1_GWF-(1,100,57)
 Under-relaxation          1               3.62916                      1_GWF-(1,100,57)
 Linear Solver             2         3    0.480994                      1_GWF-(1,40,111)
 Under-relaxation          2              0.480994                      1_GWF-(1,40,111)
 Linear Solver             3         1   -6.783107E-03                  1_GWF-(1,166,80)

 3 CALLS TO NUMERICAL SOLUTION IN TIME STEP 1 STRESS PERIOD 23
 9 TOTAL ITERATIONS


 OUTER ITERATION SUMMARY
 ---------------------------------------------------------------------------------------
                       OUTER     INNER         MAXIMUM                    MAXIMUM CHANGE
                   ITERATION ITERATION          CHANGE                    MODEL-(CELLID)
 ---------------------------------------------------------------------------------------
 Linear Solver             1         5     1.56437                      1_GWF-(1,100,57)
 Under-relaxation          1               1.56437                      1_GWF-(1,100,57)
 Linear Solver             2         3    0.296167                      1_GWF-(1,43,110)
 Under-relaxation          2              0.296167                      1_GWF-(1,43,110)
 Linear Solver             3         1   -3.532892E-03                  1_GWF-(1,100,57)

 3 CALLS TO NUMERICAL SOLUTION IN TIME STEP 2 STRESS PERIOD 23
 9 TOTAL ITERATIONS


 OUTER ITERATION SUMMARY
 ---------------------------------------------------------------------------------------
                       OUTER     INNER         MAXIMUM                    MAXIMUM CHANGE
                   ITERATION ITERATION          CHANGE                    MODEL-(CELLID)
 ---------------------------------------------------------------------------------------
 Linear Solver             1         4     1.13719                      1_GWF-(1,43,110)
 Under-relaxation          1               1.13719                      1_GWF-(1,43,110)
 Linear Solver             2         3    0.628857                      1_GWF-(1,47,108)
 Under-relaxation          2              0.628857                      1_GWF-(1,47,108)
 Linear Solver             3         2    1.630529E-02                  1_GWF-(1,61,120)
 Under-relaxation          3              1.630529E-02                  1_GWF-(1,61,120)
 Linear Solver             4         1   -2.001668E-04                  1_GWF-(1,46,108)

 4 CALLS TO NUMERICAL SOLUTION IN TIME STEP 3 STRESS PERIOD 23
 10 TOTAL ITERATIONS


 OUTER ITERATION SUMMARY
 ---------------------------------------------------------------------------------------
                       OUTER     INNER         MAXIMUM                    MAXIMUM CHANGE
                   ITERATION ITERATION          CHANGE                    MODEL-(CELLID)
 ---------------------------------------------------------------------------------------
 Linear Solver             1         4     1.97650                      1_GWF-(1,48,107)
 Under-relaxation          1               1.97650                      1_GWF-(1,48,107)
 Linear Solver             2         3    0.533938                      1_GWF-(1,46,108)
 Under-relaxation          2              0.533938                      1_GWF-(1,46,108)
 Linear Solver             3         1    6.801110E-03                  1_GWF-(1,63,124)

 3 CALLS TO NUMERICAL SOLUTION IN TIME STEP 4 STRESS PERIOD 23
 8 TOTAL ITERATIONS


 OUTER ITERATION SUMMARY
 ---------------------------------------------------------------------------------------
                       OUTER     INNER         MAXIMUM                    MAXIMUM CHANGE
                   ITERATION ITERATION          CHANGE                    MODEL-(CELLID)
 ---------------------------------------------------------------------------------------
 Linear Solver             1         4     1.66982                      1_GWF-(1,44,109)
 Under-relaxation          1               1.66982                      1_GWF-(1,44,109)
 Linear Solver             2         3    0.678457                      1_GWF-(1,45,108)
 Under-relaxation          2              0.678457                      1_GWF-(1,45,108)
 Linear Solver             3         2    3.910275E-02                  1_GWF-(1,49,105)
 Under-relaxation          3              3.910275E-02                  1_GWF-(1,49,105)
 Linear Solver             4         1   -3.188876E-04                  1_GWF-(1,153,85)

 4 CALLS TO NUMERICAL SOLUTION IN TIME STEP 5 STRESS PERIOD 23
 10 TOTAL ITERATIONS
1
                            STRESS PERIOD NO.   24, LENGTH =   2592000.    
                            -----------------------------------------------

                              NUMBER OF TIME STEPS =     5

                               MULTIPLIER FOR DELT =     1.000

                            INITIAL TIME STEP SIZE =   518400.0    


 OUTER ITERATION SUMMARY
 ---------------------------------------------------------------------------------------
                       OUTER     INNER         MAXIMUM                    MAXIMUM CHANGE
                   ITERATION ITERATION          CHANGE                    MODEL-(CELLID)
 ---------------------------------------------------------------------------------------
 Linear Solver             1         4    -1.66437                      1_GWF-(1,153,80)
 Under-relaxation          1              -1.66437                      1_GWF-(1,153,80)
 Linear Solver             2         2   -9.517876E-02                  1_GWF-(1,108,18)
 Under-relaxation          2             -9.517876E-02                  1_GWF-(1,108,18)
 Linear Solver             3         2    2.934176E-02                  1_GWF-(1,150,80)
 Under-relaxation          3              2.376682E-02                  1_GWF-(1,150,80)
 Linear Solver             4         1    3.500883E-03                  1_GWF-(1,150,80)

 4 CALLS TO NUMERICAL SOLUTION IN TIME STEP 1 STRESS PERIOD 24
 9 TOTAL ITERATIONS


 OUTER ITERATION SUMMARY
 ---------------------------------------------------------------------------------------
                       OUTER     INNER         MAXIMUM                    MAXIMUM CHANGE
                   ITERATION ITERATION          CHANGE                    MODEL-(CELLID)
 ---------------------------------------------------------------------------------------
 Linear Solver             1         3    0.568108                      1_GWF-(1,43,109)
 Under-relaxation          1              0.568108                      1_GWF-(1,43,109)
 Linear Solver             2         2    0.249612                      1_GWF-(1,150,80)
 Under-relaxation          2              0.249612                      1_GWF-(1,150,80)
 Linear Solver             3         1   -2.353795E-03                  1_GWF-(1,150,80)

 3 CALLS TO NUMERICAL SOLUTION IN TIME STEP 2 STRESS PERIOD 24
 6 TOTAL ITERATIONS


 OUTER ITERATION SUMMARY
 ---------------------------------------------------------------------------------------
                       OUTER     INNER         MAXIMUM                    MAXIMUM CHANGE
                   ITERATION ITERATION          CHANGE                    MODEL-(CELLID)
 ---------------------------------------------------------------------------------------
 Linear Solver             1         3    0.432340                      1_GWF-(1,43,107)
 Under-relaxation          1              0.432340                      1_GWF-(1,43,107)
 Linear Solver             2         2    0.116744                     1_GWF-(1,127,116)
 Under-relaxation          2              0.116744                     1_GWF-(1,127,116)
 Linear Solver             3         1    1.263556E-03                 1_GWF-(1,126,112)

 3 CALLS TO NUMERICAL SOLUTION IN TIME STEP 3 STRESS PERIOD 24
 6 TOTAL ITERATIONS


 OUTER ITERATION SUMMARY
 ---------------------------------------------------------------------------------------
                       OUTER     INNER         MAXIMUM                    MAXIMUM CHANGE
                   ITERATION ITERATION          CHANGE                    MODEL-(CELLID)
 ---------------------------------------------------------------------------------------
 Linear Solver             1         3    0.418418                     1_GWF-(1,126,112)
 Under-relaxation          1              0.418418                     1_GWF-(1,126,112)
 Linear Solver             2         2   -1.948985E-02                  1_GWF-(1,102,56)
 Under-relaxation          2             -1.754086E-02                  1_GWF-(1,102,56)
 Linear Solver             3         1   -6.904083E-04                  1_GWF-(1,102,57)

 3 CALLS TO NUMERICAL SOLUTION IN TIME STEP 4 STRESS PERIOD 24
 6 TOTAL ITERATIONS


 OUTER ITERATION SUMMARY
 ---------------------------------------------------------------------------------------
                       OUTER     INNER         MAXIMUM                    MAXIMUM CHANGE
                   ITERATION ITERATION          CHANGE                    MODEL-(CELLID)
 ---------------------------------------------------------------------------------------
 Linear Solver             1         3    0.367117                      1_GWF-(1,43,107)
 Under-relaxation          1              0.367117                      1_GWF-(1,43,107)
 Linear Solver             2         2    4.458648E-02                  1_GWF-(1,39,111)
 Under-relaxation          2              4.458648E-02                  1_GWF-(1,39,111)
 Linear Solver             3         1   -6.280502E-04                  1_GWF-(1,102,57)

 3 CALLS TO NUMERICAL SOLUTION IN TIME STEP 5 STRESS PERIOD 24
 6 TOTAL ITERATIONS

 INFORMATION ON VARIABLES STORED IN THE MEMORY MANAGER
 
 Number of allocated integer variables:   594517
 Number of allocated real variables:    722377
 Allocated memory in megabytes:     8.15708    
 

 Run end date and time (yyyy/mm/dd hh:mm:ss): 2020/04/26 10:27:41
 Elapsed run time:  5.156 Seconds

 Normal termination of simulation.
