                                   MODFLOW 6
                U.S. GEOLOGICAL SURVEY MODULAR HYDROLOGIC MODEL
                          GROUNDWATER FLOW MODEL (GWF)
                            VERSION 6.0.4 03/13/2019

   MODFLOW 6 compiled Mar 21 2019 15:37:31 with IFORT compiler (ver. 19.0.0)

This software has been approved for release by the U.S. Geological 
Survey (USGS). Although the software has been subjected to rigorous 
review, the USGS reserves the right to update the software as needed 
pursuant to further analysis and review. No warranty, expressed or 
implied, is made by the USGS or the U.S. Government as to the 
functionality of the software and related material nor shall the 
fact of release constitute any such warranty. Furthermore, the 
software is released on condition that neither the USGS nor the U.S. 
Government shall be held liable for any damages resulting from its 
authorized or unauthorized use. Also refer to the USGS Water 
Resources Software User Rights Notice for complete use, copyright, 
and distribution information.


MODFLOW was compiled using uniform precision.
Precision of REAL variables: 15


 OPENED Modele_raffine.disv
 FILE TYPE:DISV6                  UNIT 1005   STATUS:OLD                 
 FORMAT:FORMATTED              ACCESS:SEQUENTIAL          
 ACTION:READ                


 OPENED Modele_raffine.ic
 FILE TYPE:IC6                    UNIT 1006   STATUS:OLD                 
 FORMAT:FORMATTED              ACCESS:SEQUENTIAL          
 ACTION:READ                


 OPENED Modele_raffine.oc
 FILE TYPE:OC6                    UNIT 1007   STATUS:OLD                 
 FORMAT:FORMATTED              ACCESS:SEQUENTIAL          
 ACTION:READ                


 OPENED Modele_raffine.npf
 FILE TYPE:NPF6                   UNIT 1008   STATUS:OLD                 
 FORMAT:FORMATTED              ACCESS:SEQUENTIAL          
 ACTION:READ                


 OPENED Modele_raffine.rcha
 FILE TYPE:RCH6                   UNIT 1009   STATUS:OLD                 
 FORMAT:FORMATTED              ACCESS:SEQUENTIAL          
 ACTION:READ                


 OPENED sea.chd
 FILE TYPE:CHD6                   UNIT 1010   STATUS:OLD                 
 FORMAT:FORMATTED              ACCESS:SEQUENTIAL          
 ACTION:READ                


 OPENED eta.chd
 FILE TYPE:CHD6                   UNIT 1011   STATUS:OLD                 
 FORMAT:FORMATTED              ACCESS:SEQUENTIAL          
 ACTION:READ                


 OPENED agy.chd
 FILE TYPE:CHD6                   UNIT 1012   STATUS:OLD                 
 FORMAT:FORMATTED              ACCESS:SEQUENTIAL          
 ACTION:READ                


 OPENED tet.chd
 FILE TYPE:CHD6                   UNIT 1013   STATUS:OLD                 
 FORMAT:FORMATTED              ACCESS:SEQUENTIAL          
 ACTION:READ                


 OPENED Bol.chd
 FILE TYPE:CHD6                   UNIT 1014   STATUS:OLD                 
 FORMAT:FORMATTED              ACCESS:SEQUENTIAL          
 ACTION:READ                


 OPENED Cant.chd
 FILE TYPE:CHD6                   UNIT 1015   STATUS:OLD                 
 FORMAT:FORMATTED              ACCESS:SEQUENTIAL          
 ACTION:READ                


 OPENED Rea.chd
 FILE TYPE:CHD6                   UNIT 1016   STATUS:OLD                 
 FORMAT:FORMATTED              ACCESS:SEQUENTIAL          
 ACTION:READ                


 OPENED Tech.chd
 FILE TYPE:CHD6                   UNIT 1017   STATUS:OLD                 
 FORMAT:FORMATTED              ACCESS:SEQUENTIAL          
 ACTION:READ                


 DISV -- VERTEX GRID DISCRETIZATION PACKAGE, VERSION 1 : 12/23/2015 - INPUT READ FROM UNIT 1005



 PROCESSING DISCRETIZATION OPTIONS
    XORIGIN SPECIFIED AS     660000.000000000    
    YORIGIN SPECIFIED AS     6150000.00000000    
   MODEL LENGTH UNIT IS UNDEFINED
 END OF DISCRETIZATION OPTIONS

 PROCESSING DISCRETIZATION DIMENSIONS
   NLAY = 1
   NCPL = 3312
   NVERT = 4078
 END OF DISCRETIZATION DIMENSIONS

 PROCESSING GRIDDATA
 END PROCESSING GRIDDATA

 PROCESSING VERTICES
   SUCCESSFULLY READ 4078 (X,Y) COORDINATES
   MINIMUM X COORDINATE =     664000.000000000    
   MAXIMUM X COORDINATE =     705000.000000000    
   MINIMUM Y COORDINATE =     6153000.00000000    
   MAXIMUM Y COORDINATE =     6204000.00000000    
 END PROCESSING VERTICES

 PROCESSING CELL2D
   SUCCESSFULLY READ 3312 CELL2D INFORMATION ENTRIES
   MINIMUM X CELL CENTER =     664250.000000000    
   MAXIMUM X CELL CENTER =     704875.000000000    
   MINIMUM Y CELL CENTER =     6153500.00000000    
   MAXIMUM Y CELL CENTER =     6203750.00000000    
   MAXIMUM NUMBER OF CELL2D VERTICES IS 8 FOR CELL 350
 END PROCESSING VERTICES

 NPF -- NODE PROPERTY FLOW PACKAGE, VERSION 1, 3/30/2015 INPUT READ FROM UNIT 1008


 PROCESSING NPF OPTIONS
    CELL-BY-CELL FLOW INFORMATION WILL BE SAVED TO BINARY FILE WHENEVER ICBCFL IS NOT ZERO.
    XT3D FORMULATION IS SELECTED.
 END OF NPF OPTIONS

 RCH   -- RCH PACKAGE, VERSION 8, 2/22/2014 INPUT READ FROM UNIT 1009

 PROCESSING RCH OPTIONS
    RECHARGE INPUT WILL BE READ AS ARRAY(S).
 END OF RCH OPTIONS

 CHD   -- CHD PACKAGE, VERSION 8, 2/22/2014 INPUT READ FROM UNIT 1010

 PROCESSING CHD OPTIONS
    FLOWS WILL BE SAVED TO BUDGET FILE SPECIFIED IN OUTPUT CONTROL
 END OF CHD OPTIONS

 PROCESSING CHD DIMENSIONS
    MAXBOUND =     201
 END OF CHD DIMENSIONS

 CHD   -- CHD PACKAGE, VERSION 8, 2/22/2014 INPUT READ FROM UNIT 1011

 PROCESSING CHD OPTIONS
    FLOWS WILL BE SAVED TO BUDGET FILE SPECIFIED IN OUTPUT CONTROL
 END OF CHD OPTIONS

 PROCESSING CHD DIMENSIONS
    MAXBOUND =     163
 END OF CHD DIMENSIONS

 CHD   -- CHD PACKAGE, VERSION 8, 2/22/2014 INPUT READ FROM UNIT 1012

 PROCESSING CHD OPTIONS
    FLOWS WILL BE SAVED TO BUDGET FILE SPECIFIED IN OUTPUT CONTROL
 END OF CHD OPTIONS

 PROCESSING CHD DIMENSIONS
    MAXBOUND =      97
 END OF CHD DIMENSIONS

 CHD   -- CHD PACKAGE, VERSION 8, 2/22/2014 INPUT READ FROM UNIT 1013

 PROCESSING CHD OPTIONS
    FLOWS WILL BE SAVED TO BUDGET FILE SPECIFIED IN OUTPUT CONTROL
 END OF CHD OPTIONS

 PROCESSING CHD DIMENSIONS
    MAXBOUND =     213
 END OF CHD DIMENSIONS

 CHD   -- CHD PACKAGE, VERSION 8, 2/22/2014 INPUT READ FROM UNIT 1014

 PROCESSING CHD OPTIONS
    FLOWS WILL BE SAVED TO BUDGET FILE SPECIFIED IN OUTPUT CONTROL
 END OF CHD OPTIONS

 PROCESSING CHD DIMENSIONS
    MAXBOUND =      58
 END OF CHD DIMENSIONS

 CHD   -- CHD PACKAGE, VERSION 8, 2/22/2014 INPUT READ FROM UNIT 1015

 PROCESSING CHD OPTIONS
    FLOWS WILL BE SAVED TO BUDGET FILE SPECIFIED IN OUTPUT CONTROL
 END OF CHD OPTIONS

 PROCESSING CHD DIMENSIONS
    MAXBOUND =      87
 END OF CHD DIMENSIONS

 CHD   -- CHD PACKAGE, VERSION 8, 2/22/2014 INPUT READ FROM UNIT 1016

 PROCESSING CHD OPTIONS
    FLOWS WILL BE SAVED TO BUDGET FILE SPECIFIED IN OUTPUT CONTROL
 END OF CHD OPTIONS

 PROCESSING CHD DIMENSIONS
    MAXBOUND =     139
 END OF CHD DIMENSIONS

 CHD   -- CHD PACKAGE, VERSION 8, 2/22/2014 INPUT READ FROM UNIT 1017

 PROCESSING CHD OPTIONS
    FLOWS WILL BE SAVED TO BUDGET FILE SPECIFIED IN OUTPUT CONTROL
 END OF CHD OPTIONS

 PROCESSING CHD DIMENSIONS
    MAXBOUND =     132
 END OF CHD DIMENSIONS

 IC -- INITIAL CONDITIONS PACKAGE, VERSION 8, 3/28/2015 INPUT READ FROM UNIT 1006
 PROCESSING GRIDDATA

     INITIAL HEAD =   1.000000    
 END PROCESSING GRIDDATA
 PROCESSING GRIDDATA

                ICELLTYPE = 0

                        K =  0.5000000E-04
 K33 not provided.  Assuming K33 = K.
 K22 not provided.  Assuming K22 = K.
XT3D IN USE, BUT ANGLE1 NOT SPECIFIED. SETTING ANGLE1 TO ZERO.
 END PROCESSING GRIDDATA

 XT3D is active.


    BINARY GRID INFORMATION WILL BE WRITTEN TO:
      UNIT NUMBER: 1019
      FILE NAME: C:\Users\emmal\Documents\GitHub\TM_Ludovic_Schorpp\codes_tests\Modeles2D\Raffinement\working\Modele_raffine.disv.grb

 OPENED C:\Users\emmal\Documents\GitHub\TM_Ludovic_Schorpp\codes_tests\Modeles2D\Raffinement\working\Modele_raffine.disv.grb
 FILE TYPE:DATA(BINARY)   UNIT 1019   STATUS:REPLACE             
 FORMAT:UNFORMATTED            ACCESS:STREAM              
 ACTION:READWRITE           

      THE LAST TIME STEP WILL BE PRINTED
      THE LAST TIME STEP WILL BE PRINTED
 PROCESSING OC OPTIONS
    BUDGET INFORMATION WILL BE WRITTEN TO:
      UNIT NUMBER: 1020
      FILE NAME: Modele_raffine.cbc

 OPENED Modele_raffine.cbc
 FILE TYPE:DATA(BINARY)   UNIT 1020   STATUS:REPLACE             
 FORMAT:UNFORMATTED            ACCESS:STREAM              
 ACTION:READWRITE           

    HEAD INFORMATION WILL BE WRITTEN TO:
      UNIT NUMBER: 1021
      FILE NAME: Modele_raffine.hds

 OPENED Modele_raffine.hds
 FILE TYPE:DATA(BINARY)   UNIT 1021   STATUS:REPLACE             
 FORMAT:UNFORMATTED            ACCESS:STREAM              
 ACTION:READWRITE           

 END OF OC OPTIONS

 BEGIN READING OUTPUT CONTROL FOR STRESS PERIOD 1
      THE LAST TIME STEP WILL BE SAVED
      ALL TIME STEPS WILL BE SAVED
      THE LAST TIME STEP WILL BE PRINTED
      ALL TIME STEPS WILL BE PRINTED

 END READING OUTPUT CONTROL FOR STRESS PERIOD 1
 UBDSV1 SAVING     FLOW-JA-FACE ON UNIT   1020 AT TIME STEP      1, STRESS PERIOD      1
 UBDSV06 SAVING       DATA-SPDIS IN MODEL MODELE_RAFFINE   PACKAGE NPF             CONNECTED TO MODEL MODELE_RAFFINE   PACKAGE NPF              ON UNIT   1020 AT TIME STEP      1, STRESS PERIOD      1
 UBDSV06 SAVING              CHD IN MODEL MODELE_RAFFINE   PACKAGE MODELE_RAFFINE  CONNECTED TO MODEL MODELE_RAFFINE   PACKAGE SEA              ON UNIT   1020 AT TIME STEP      1, STRESS PERIOD      1
 UBDSV06 SAVING              CHD IN MODEL MODELE_RAFFINE   PACKAGE MODELE_RAFFINE  CONNECTED TO MODEL MODELE_RAFFINE   PACKAGE ETA              ON UNIT   1020 AT TIME STEP      1, STRESS PERIOD      1
 UBDSV06 SAVING              CHD IN MODEL MODELE_RAFFINE   PACKAGE MODELE_RAFFINE  CONNECTED TO MODEL MODELE_RAFFINE   PACKAGE AGY              ON UNIT   1020 AT TIME STEP      1, STRESS PERIOD      1
 UBDSV06 SAVING              CHD IN MODEL MODELE_RAFFINE   PACKAGE MODELE_RAFFINE  CONNECTED TO MODEL MODELE_RAFFINE   PACKAGE TET              ON UNIT   1020 AT TIME STEP      1, STRESS PERIOD      1
 UBDSV06 SAVING              CHD IN MODEL MODELE_RAFFINE   PACKAGE MODELE_RAFFINE  CONNECTED TO MODEL MODELE_RAFFINE   PACKAGE BOL              ON UNIT   1020 AT TIME STEP      1, STRESS PERIOD      1
 UBDSV06 SAVING              CHD IN MODEL MODELE_RAFFINE   PACKAGE MODELE_RAFFINE  CONNECTED TO MODEL MODELE_RAFFINE   PACKAGE CANT             ON UNIT   1020 AT TIME STEP      1, STRESS PERIOD      1
 UBDSV06 SAVING              CHD IN MODEL MODELE_RAFFINE   PACKAGE MODELE_RAFFINE  CONNECTED TO MODEL MODELE_RAFFINE   PACKAGE REA              ON UNIT   1020 AT TIME STEP      1, STRESS PERIOD      1
 UBDSV06 SAVING              CHD IN MODEL MODELE_RAFFINE   PACKAGE MODELE_RAFFINE  CONNECTED TO MODEL MODELE_RAFFINE   PACKAGE TECH             ON UNIT   1020 AT TIME STEP      1, STRESS PERIOD      1
1
  HEAD IN LAYER   1 AT END OF TIME STEP   1 IN STRESS PERIOD    1
  ---------------------------------------------------------------------------

            1           2           3           4           5           6           7           8           9          10
           11          12          13          14          15          16          17          18          19          20
           21          22          23          24          25          26          27          28          29          30
           31          32          33          34          35          36          37          38          39          40
           41          42          43          44          45          46          47          48          49          50
           51          52          53          54          55          56          57          58          59          60
           61          62          63          64          65          66          67          68          69          70
           71          72          73          74          75          76          77          78          79          80
           81          82          83          84          85          86          87          88          89          90
           91          92          93          94          95          96          97          98          99         100
          101         102         103         104         105         106         107         108         109         110
          111         112         113         114         115         116         117         118         119         120
          121         122         123         124         125         126         127         128         129         130
          131         132         133         134         135         136         137         138         139         140
          141         142         143         144         145         146         147         148         149         150
          151         152         153         154         155         156         157         158         159         160
          161         162         163         164         165         166         167         168         169         170
          171         172         173         174         175         176         177         178         179         180
          181         182         183         184         185         186         187         188         189         190
          191         192         193         194         195         196         197         198         199         200
          201         202         203         204         205         206         207         208         209         210
          211         212         213         214         215         216         217         218         219         220
          221         222         223         224         225         226         227         228         229         230
          231         232         233         234         235         236         237         238         239         240
          241         242         243         244         245         246         247         248         249         250
          251         252         253         254         255         256         257         258         259         260
          261         262         263         264         265         266         267         268         269         270
          271         272         273         274         275         276         277         278         279         280
          281         282         283         284         285         286         287         288         289         290
          291         292         293         294         295         296         297         298         299         300
          301         302         303         304         305         306         307         308         309         310
          311         312         313         314         315         316         317         318         319         320
          321         322         323         324         325         326         327         328         329         330
          331         332         333         334         335         336         337         338         339         340
          341         342         343         344         345         346         347         348         349         350
          351         352         353         354         355         356         357         358         359         360
          361         362         363         364         365         366         367         368         369         370
          371         372         373         374         375         376         377         378         379         380
          381         382         383         384         385         386         387         388         389         390
          391         392         393         394         395         396         397         398         399         400
          401         402         403         404         405         406         407         408         409         410
          411         412         413         414         415         416         417         418         419         420
          421         422         423         424         425         426         427         428         429         430
          431         432         433         434         435         436         437         438         439         440
          441         442         443         444         445         446         447         448         449         450
          451         452         453         454         455         456         457         458         459         460
          461         462         463         464         465         466         467         468         469         470
          471         472         473         474         475         476         477         478         479         480
          481         482         483         484         485         486         487         488         489         490
          491         492         493         494         495         496         497         498         499         500
          501         502         503         504         505         506         507         508         509         510
          511         512         513         514         515         516         517         518         519         520
          521         522         523         524         525         526         527         528         529         530
          531         532         533         534         535         536         537         538         539         540
          541         542         543         544         545         546         547         548         549         550
          551         552         553         554         555         556         557         558         559         560
          561         562         563         564         565         566         567         568         569         570
          571         572         573         574         575         576         577         578         579         580
          581         582         583         584         585         586         587         588         589         590
          591         592         593         594         595         596         597         598         599         600
          601         602         603         604         605         606         607         608         609         610
          611         612         613         614         615         616         617         618         619         620
          621         622         623         624         625         626         627         628         629         630
          631         632         633         634         635         636         637         638         639         640
          641         642         643         644         645         646         647         648         649         650
          651         652         653         654         655         656         657         658         659         660
          661         662         663         664         665         666         667         668         669         670
          671         672         673         674         675         676         677         678         679         680
          681         682         683         684         685         686         687         688         689         690
          691         692         693         694         695         696         697         698         699         700
          701         702         703         704         705         706         707         708         709         710
          711         712         713         714         715         716         717         718         719         720
          721         722         723         724         725         726         727         728         729         730
          731         732         733         734         735         736         737         738         739         740
          741         742         743         744         745         746         747         748         749         750
          751         752         753         754         755         756         757         758         759         760
          761         762         763         764         765         766         767         768         769         770
          771         772         773         774         775         776         777         778         779         780
          781         782         783         784         785         786         787         788         789         790
          791         792         793         794         795         796         797         798         799         800
          801         802         803         804         805         806         807         808         809         810
          811         812         813         814         815         816         817         818         819         820
          821         822         823         824         825         826         827         828         829         830
          831         832         833         834         835         836         837         838         839         840
          841         842         843         844         845         846         847         848         849         850
          851         852         853         854         855         856         857         858         859         860
          861         862         863         864         865         866         867         868         869         870
          871         872         873         874         875         876         877         878         879         880
          881         882         883         884         885         886         887         888         889         890
          891         892         893         894         895         896         897         898         899         900
          901         902         903         904         905         906         907         908         909         910
          911         912         913         914         915         916         917         918         919         920
          921         922         923         924         925         926         927         928         929         930
          931         932         933         934         935         936         937         938         939         940
          941         942         943         944         945         946         947         948         949         950
          951         952         953         954         955         956         957         958         959         960
          961         962         963         964         965         966         967         968         969         970
          971         972         973         974         975         976         977         978         979         980
          981         982         983         984         985         986         987         988         989         990
          991         992         993         994         995         996         997         998         999        1000
         1001        1002        1003        1004        1005        1006        1007        1008        1009        1010
         1011        1012        1013        1014        1015        1016        1017        1018        1019        1020
         1021        1022        1023        1024        1025        1026        1027        1028        1029        1030
         1031        1032        1033        1034        1035        1036        1037        1038        1039        1040
         1041        1042        1043        1044        1045        1046        1047        1048        1049        1050
         1051        1052        1053        1054        1055        1056        1057        1058        1059        1060
         1061        1062        1063        1064        1065        1066        1067        1068        1069        1070
         1071        1072        1073        1074        1075        1076        1077        1078        1079        1080
         1081        1082        1083        1084        1085        1086        1087        1088        1089        1090
         1091        1092        1093        1094        1095        1096        1097        1098        1099        1100
         1101        1102        1103        1104        1105        1106        1107        1108        1109        1110
         1111        1112        1113        1114        1115        1116        1117        1118        1119        1120
         1121        1122        1123        1124        1125        1126        1127        1128        1129        1130
         1131        1132        1133        1134        1135        1136        1137        1138        1139        1140
         1141        1142        1143        1144        1145        1146        1147        1148        1149        1150
         1151        1152        1153        1154        1155        1156        1157        1158        1159        1160
         1161        1162        1163        1164        1165        1166        1167        1168        1169        1170
         1171        1172        1173        1174        1175        1176        1177        1178        1179        1180
         1181        1182        1183        1184        1185        1186        1187        1188        1189        1190
         1191        1192        1193        1194        1195        1196        1197        1198        1199        1200
         1201        1202        1203        1204        1205        1206        1207        1208        1209        1210
         1211        1212        1213        1214        1215        1216        1217        1218        1219        1220
         1221        1222        1223        1224        1225        1226        1227        1228        1229        1230
         1231        1232        1233        1234        1235        1236        1237        1238        1239        1240
         1241        1242        1243        1244        1245        1246        1247        1248        1249        1250
         1251        1252        1253        1254        1255        1256        1257        1258        1259        1260
         1261        1262        1263        1264        1265        1266        1267        1268        1269        1270
         1271        1272        1273        1274        1275        1276        1277        1278        1279        1280
         1281        1282        1283        1284        1285        1286        1287        1288        1289        1290
         1291        1292        1293        1294        1295        1296        1297        1298        1299        1300
         1301        1302        1303        1304        1305        1306        1307        1308        1309        1310
         1311        1312        1313        1314        1315        1316        1317        1318        1319        1320
         1321        1322        1323        1324        1325        1326        1327        1328        1329        1330
         1331        1332        1333        1334        1335        1336        1337        1338        1339        1340
         1341        1342        1343        1344        1345        1346        1347        1348        1349        1350
         1351        1352        1353        1354        1355        1356        1357        1358        1359        1360
         1361        1362        1363        1364        1365        1366        1367        1368        1369        1370
         1371        1372        1373        1374        1375        1376        1377        1378        1379        1380
         1381        1382        1383        1384        1385        1386        1387        1388        1389        1390
         1391        1392        1393        1394        1395        1396        1397        1398        1399        1400
         1401        1402        1403        1404        1405        1406        1407        1408        1409        1410
         1411        1412        1413        1414        1415        1416        1417        1418        1419        1420
         1421        1422        1423        1424        1425        1426        1427        1428        1429        1430
         1431        1432        1433        1434        1435        1436        1437        1438        1439        1440
         1441        1442        1443        1444        1445        1446        1447        1448        1449        1450
         1451        1452        1453        1454        1455        1456        1457        1458        1459        1460
         1461        1462        1463        1464        1465        1466        1467        1468        1469        1470
         1471        1472        1473        1474        1475        1476        1477        1478        1479        1480
         1481        1482        1483        1484        1485        1486        1487        1488        1489        1490
         1491        1492        1493        1494        1495        1496        1497        1498        1499        1500
         1501        1502        1503        1504        1505        1506        1507        1508        1509        1510
         1511        1512        1513        1514        1515        1516        1517        1518        1519        1520
         1521        1522        1523        1524        1525        1526        1527        1528        1529        1530
         1531        1532        1533        1534        1535        1536        1537        1538        1539        1540
         1541        1542        1543        1544        1545        1546        1547        1548        1549        1550
         1551        1552        1553        1554        1555        1556        1557        1558        1559        1560
         1561        1562        1563        1564        1565        1566        1567        1568        1569        1570
         1571        1572        1573        1574        1575        1576        1577        1578        1579        1580
         1581        1582        1583        1584        1585        1586        1587        1588        1589        1590
         1591        1592        1593        1594        1595        1596        1597        1598        1599        1600
         1601        1602        1603        1604        1605        1606        1607        1608        1609        1610
         1611        1612        1613        1614        1615        1616        1617        1618        1619        1620
         1621        1622        1623        1624        1625        1626        1627        1628        1629        1630
         1631        1632        1633        1634        1635        1636        1637        1638        1639        1640
         1641        1642        1643        1644        1645        1646        1647        1648        1649        1650
         1651        1652        1653        1654        1655        1656        1657        1658        1659        1660
         1661        1662        1663        1664        1665        1666        1667        1668        1669        1670
         1671        1672        1673        1674        1675        1676        1677        1678        1679        1680
         1681        1682        1683        1684        1685        1686        1687        1688        1689        1690
         1691        1692        1693        1694        1695        1696        1697        1698        1699        1700
         1701        1702        1703        1704        1705        1706        1707        1708        1709        1710
         1711        1712        1713        1714        1715        1716        1717        1718        1719        1720
         1721        1722        1723        1724        1725        1726        1727        1728        1729        1730
         1731        1732        1733        1734        1735        1736        1737        1738        1739        1740
         1741        1742        1743        1744        1745        1746        1747        1748        1749        1750
         1751        1752        1753        1754        1755        1756        1757        1758        1759        1760
         1761        1762        1763        1764        1765        1766        1767        1768        1769        1770
         1771        1772        1773        1774        1775        1776        1777        1778        1779        1780
         1781        1782        1783        1784        1785        1786        1787        1788        1789        1790
         1791        1792        1793        1794        1795        1796        1797        1798        1799        1800
         1801        1802        1803        1804        1805        1806        1807        1808        1809        1810
         1811        1812        1813        1814        1815        1816        1817        1818        1819        1820
         1821        1822        1823        1824        1825        1826        1827        1828        1829        1830
         1831        1832        1833        1834        1835        1836        1837        1838        1839        1840
         1841        1842        1843        1844        1845        1846        1847        1848        1849        1850
         1851        1852        1853        1854        1855        1856        1857        1858        1859        1860
         1861        1862        1863        1864        1865        1866        1867        1868        1869        1870
         1871        1872        1873        1874        1875        1876        1877        1878        1879        1880
         1881        1882        1883        1884        1885        1886        1887        1888        1889        1890
         1891        1892        1893        1894        1895        1896        1897        1898        1899        1900
         1901        1902        1903        1904        1905        1906        1907        1908        1909        1910
         1911        1912        1913        1914        1915        1916        1917        1918        1919        1920
         1921        1922        1923        1924        1925        1926        1927        1928        1929        1930
         1931        1932        1933        1934        1935        1936        1937        1938        1939        1940
         1941        1942        1943        1944        1945        1946        1947        1948        1949        1950
         1951        1952        1953        1954        1955        1956        1957        1958        1959        1960
         1961        1962        1963        1964        1965        1966        1967        1968        1969        1970
         1971        1972        1973        1974        1975        1976        1977        1978        1979        1980
         1981        1982        1983        1984        1985        1986        1987        1988        1989        1990
         1991        1992        1993        1994        1995        1996        1997        1998        1999        2000
         2001        2002        2003        2004        2005        2006        2007        2008        2009        2010
         2011        2012        2013        2014        2015        2016        2017        2018        2019        2020
         2021        2022        2023        2024        2025        2026        2027        2028        2029        2030
         2031        2032        2033        2034        2035        2036        2037        2038        2039        2040
         2041        2042        2043        2044        2045        2046        2047        2048        2049        2050
         2051        2052        2053        2054        2055        2056        2057        2058        2059        2060
         2061        2062        2063        2064        2065        2066        2067        2068        2069        2070
         2071        2072        2073        2074        2075        2076        2077        2078        2079        2080
         2081        2082        2083        2084        2085        2086        2087        2088        2089        2090
         2091        2092        2093        2094        2095        2096        2097        2098        2099        2100
         2101        2102        2103        2104        2105        2106        2107        2108        2109        2110
         2111        2112        2113        2114        2115        2116        2117        2118        2119        2120
         2121        2122        2123        2124        2125        2126        2127        2128        2129        2130
         2131        2132        2133        2134        2135        2136        2137        2138        2139        2140
         2141        2142        2143        2144        2145        2146        2147        2148        2149        2150
         2151        2152        2153        2154        2155        2156        2157        2158        2159        2160
         2161        2162        2163        2164        2165        2166        2167        2168        2169        2170
         2171        2172        2173        2174        2175        2176        2177        2178        2179        2180
         2181        2182        2183        2184        2185        2186        2187        2188        2189        2190
         2191        2192        2193        2194        2195        2196        2197        2198        2199        2200
         2201        2202        2203        2204        2205        2206        2207        2208        2209        2210
         2211        2212        2213        2214        2215        2216        2217        2218        2219        2220
         2221        2222        2223        2224        2225        2226        2227        2228        2229        2230
         2231        2232        2233        2234        2235        2236        2237        2238        2239        2240
         2241        2242        2243        2244        2245        2246        2247        2248        2249        2250
         2251        2252        2253        2254        2255        2256        2257        2258        2259        2260
         2261        2262        2263        2264        2265        2266        2267        2268        2269        2270
         2271        2272        2273        2274        2275        2276        2277        2278        2279        2280
         2281        2282        2283        2284        2285        2286        2287        2288        2289        2290
         2291        2292        2293        2294        2295        2296        2297        2298        2299        2300
         2301        2302        2303        2304        2305        2306        2307        2308        2309        2310
         2311        2312        2313        2314        2315        2316        2317        2318        2319        2320
         2321        2322        2323        2324        2325        2326        2327        2328        2329        2330
         2331        2332        2333        2334        2335        2336        2337        2338        2339        2340
         2341        2342        2343        2344        2345        2346        2347        2348        2349        2350
         2351        2352        2353        2354        2355        2356        2357        2358        2359        2360
         2361        2362        2363        2364        2365        2366        2367        2368        2369        2370
         2371        2372        2373        2374        2375        2376        2377        2378        2379        2380
         2381        2382        2383        2384        2385        2386        2387        2388        2389        2390
         2391        2392        2393        2394        2395        2396        2397        2398        2399        2400
         2401        2402        2403        2404        2405        2406        2407        2408        2409        2410
         2411        2412        2413        2414        2415        2416        2417        2418        2419        2420
         2421        2422        2423        2424        2425        2426        2427        2428        2429        2430
         2431        2432        2433        2434        2435        2436        2437        2438        2439        2440
         2441        2442        2443        2444        2445        2446        2447        2448        2449        2450
         2451        2452        2453        2454        2455        2456        2457        2458        2459        2460
         2461        2462        2463        2464        2465        2466        2467        2468        2469        2470
         2471        2472        2473        2474        2475        2476        2477        2478        2479        2480
         2481        2482        2483        2484        2485        2486        2487        2488        2489        2490
         2491        2492        2493        2494        2495        2496        2497        2498        2499        2500
         2501        2502        2503        2504        2505        2506        2507        2508        2509        2510
         2511        2512        2513        2514        2515        2516        2517        2518        2519        2520
         2521        2522        2523        2524        2525        2526        2527        2528        2529        2530
         2531        2532        2533        2534        2535        2536        2537        2538        2539        2540
         2541        2542        2543        2544        2545        2546        2547        2548        2549        2550
         2551        2552        2553        2554        2555        2556        2557        2558        2559        2560
         2561        2562        2563        2564        2565        2566        2567        2568        2569        2570
         2571        2572        2573        2574        2575        2576        2577        2578        2579        2580
         2581        2582        2583        2584        2585        2586        2587        2588        2589        2590
         2591        2592        2593        2594        2595        2596        2597        2598        2599        2600
         2601        2602        2603        2604        2605        2606        2607        2608        2609        2610
         2611        2612        2613        2614        2615        2616        2617        2618        2619        2620
         2621        2622        2623        2624        2625        2626        2627        2628        2629        2630
         2631        2632        2633        2634        2635        2636        2637        2638        2639        2640
         2641        2642        2643        2644        2645        2646        2647        2648        2649        2650
         2651        2652        2653        2654        2655        2656        2657        2658        2659        2660
         2661        2662        2663        2664        2665        2666        2667        2668        2669        2670
         2671        2672        2673        2674        2675        2676        2677        2678        2679        2680
         2681        2682        2683        2684        2685        2686        2687        2688        2689        2690
         2691        2692        2693        2694        2695        2696        2697        2698        2699        2700
         2701        2702        2703        2704        2705        2706        2707        2708        2709        2710
         2711        2712        2713        2714        2715        2716        2717        2718        2719        2720
         2721        2722        2723        2724        2725        2726        2727        2728        2729        2730
         2731        2732        2733        2734        2735        2736        2737        2738        2739        2740
         2741        2742        2743        2744        2745        2746        2747        2748        2749        2750
         2751        2752        2753        2754        2755        2756        2757        2758        2759        2760
         2761        2762        2763        2764        2765        2766        2767        2768        2769        2770
         2771        2772        2773        2774        2775        2776        2777        2778        2779        2780
         2781        2782        2783        2784        2785        2786        2787        2788        2789        2790
         2791        2792        2793        2794        2795        2796        2797        2798        2799        2800
         2801        2802        2803        2804        2805        2806        2807        2808        2809        2810
         2811        2812        2813        2814        2815        2816        2817        2818        2819        2820
         2821        2822        2823        2824        2825        2826        2827        2828        2829        2830
         2831        2832        2833        2834        2835        2836        2837        2838        2839        2840
         2841        2842        2843        2844        2845        2846        2847        2848        2849        2850
         2851        2852        2853        2854        2855        2856        2857        2858        2859        2860
         2861        2862        2863        2864        2865        2866        2867        2868        2869        2870
         2871        2872        2873        2874        2875        2876        2877        2878        2879        2880
         2881        2882        2883        2884        2885        2886        2887        2888        2889        2890
         2891        2892        2893        2894        2895        2896        2897        2898        2899        2900
         2901        2902        2903        2904        2905        2906        2907        2908        2909        2910
         2911        2912        2913        2914        2915        2916        2917        2918        2919        2920
         2921        2922        2923        2924        2925        2926        2927        2928        2929        2930
         2931        2932        2933        2934        2935        2936        2937        2938        2939        2940
         2941        2942        2943        2944        2945        2946        2947        2948        2949        2950
         2951        2952        2953        2954        2955        2956        2957        2958        2959        2960
         2961        2962        2963        2964        2965        2966        2967        2968        2969        2970
         2971        2972        2973        2974        2975        2976        2977        2978        2979        2980
         2981        2982        2983        2984        2985        2986        2987        2988        2989        2990
         2991        2992        2993        2994        2995        2996        2997        2998        2999        3000
         3001        3002        3003        3004        3005        3006        3007        3008        3009        3010
         3011        3012        3013        3014        3015        3016        3017        3018        3019        3020
         3021        3022        3023        3024        3025        3026        3027        3028        3029        3030
         3031        3032        3033        3034        3035        3036        3037        3038        3039        3040
         3041        3042        3043        3044        3045        3046        3047        3048        3049        3050
         3051        3052        3053        3054        3055        3056        3057        3058        3059        3060
         3061        3062        3063        3064        3065        3066        3067        3068        3069        3070
         3071        3072        3073        3074        3075        3076        3077        3078        3079        3080
         3081        3082        3083        3084        3085        3086        3087        3088        3089        3090
         3091        3092        3093        3094        3095        3096        3097        3098        3099        3100
         3101        3102        3103        3104        3105        3106        3107        3108        3109        3110
         3111        3112        3113        3114        3115        3116        3117        3118        3119        3120
         3121        3122        3123        3124        3125        3126        3127        3128        3129        3130
         3131        3132        3133        3134        3135        3136        3137        3138        3139        3140
         3141        3142        3143        3144        3145        3146        3147        3148        3149        3150
         3151        3152        3153        3154        3155        3156        3157        3158        3159        3160
         3161        3162        3163        3164        3165        3166        3167        3168        3169        3170
         3171        3172        3173        3174        3175        3176        3177        3178        3179        3180
         3181        3182        3183        3184        3185        3186        3187        3188        3189        3190
         3191        3192        3193        3194        3195        3196        3197        3198        3199        3200
         3201        3202        3203        3204        3205        3206        3207        3208        3209        3210
         3211        3212        3213        3214        3215        3216        3217        3218        3219        3220
         3221        3222        3223        3224        3225        3226        3227        3228        3229        3230
         3231        3232        3233        3234        3235        3236        3237        3238        3239        3240
         3241        3242        3243        3244        3245        3246        3247        3248        3249        3250
         3251        3252        3253        3254        3255        3256        3257        3258        3259        3260
         3261        3262        3263        3264        3265        3266        3267        3268        3269        3270
         3271        3272        3273        3274        3275        3276        3277        3278        3279        3280
         3281        3282        3283        3284        3285        3286        3287        3288        3289        3290
         3291        3292        3293        3294        3295        3296        3297        3298        3299        3300
         3301        3302        3303        3304        3305        3306        3307        3308        3309        3310
         3311        3312
 ........................................................................................................................
   1    3.216       2.526       1.846       2.297       1.529       1.113      0.7332       0.000      0.7163      0.3379    
        0.000       0.000       0.000       0.000       2.824       1.703      0.8233      0.3573       1.031      0.6159    
        0.000       0.000      0.1767       0.000       0.000      0.2940       0.000       0.000      0.1262       0.000    
        2.713       1.653      0.8759      0.4148      0.1696       0.000      0.1795       0.000      0.3600      0.1416    
        0.000       0.000       0.000      0.9811       0.000      0.1844       0.000       0.000      0.1009       0.000    
        0.000       0.000       0.000       0.000       0.000       0.000       0.000       0.000      5.0543E-02   0.000    
       3.5625E-02   0.000       0.000      3.0771E-02   0.000      2.8416E-02   0.000       0.000       0.000       0.000    
        0.000       0.000       0.000       0.000      2.6748E-02   0.000      2.5139E-02   0.000      2.2717E-02   0.000    
       1.6457E-02   0.000       0.000       0.000       0.000       0.000       0.000       0.000       0.000      4.6093E-02
        0.000       0.000       0.000       0.000       0.000       0.000       0.000       0.000       0.000       0.000    
       8.6496E-02  6.4892E-02  3.2926E-02  5.9246E-02   0.000      0.1088      6.0193E-02   0.000      6.1377E-02   0.000    
        0.000       0.000       2.541       0.000       0.000       0.000       0.000       0.000       0.000       0.000    
       0.1096      6.1096E-02   0.000      5.8858E-02   0.000      0.1019      5.6206E-02   0.000      5.1386E-02   0.000    
        9.971       7.532       3.508       0.000       0.000       0.000       0.000       0.000       0.000       0.000    
       8.4628E-02  3.8527E-02   0.000       0.000       0.000      7.1326E-02   0.000       0.000       10.93       7.732    
        3.079       0.000       0.000       0.000       0.000       0.000       0.000       0.000      6.8440E-02   0.000    
        0.000      7.4892E-02   0.000       0.000       21.13       18.16       13.12       8.068       0.000       0.000    
        0.000       0.000       0.000       0.000       0.000       0.000       0.000       0.000       0.000      5.2802E-02
       3.6936E-02  3.4182E-02   0.000       0.000       0.000      2.9034E-02   0.000      2.7241E-02   0.000       22.63    
        20.02       13.96       10.00       5.308       2.522       0.000       0.000       0.000       0.000       0.000    
        0.000       0.000       0.000      7.4959E-02  2.7155E-02   0.000      3.2749E-02   0.000      4.5509E-02   0.000    
       5.2114E-02   0.000       33.01       32.23       30.76       28.69       26.16       23.07       19.75       15.53    
        11.44       7.433       3.781       0.000       0.000       0.000       0.000       0.000       0.000      8.8895E-02
        0.000      7.2718E-02  5.4826E-02   0.000      5.4343E-02   0.000      5.1083E-02   0.000      4.3674E-02   0.000    
        32.32       31.36       29.78       27.62       25.17       22.43       19.45       15.87       12.12       8.453    
        4.638       0.000       0.000       0.000       0.000       0.000       0.000       0.000       0.000       0.000    
       3.0421E-02   0.000      2.3837E-02   0.000      2.1504E-02   0.000      1.5855E-02   0.000       31.04       29.97    
        28.18       25.99       23.63       21.16       18.45       15.31       12.18       9.070       5.923       2.717    
        0.000       0.000      0.4787       0.000       0.000       0.000      0.2465      0.1671       0.000       0.000    
        0.000       0.000      5.0635E-02   0.000      5.5284E-02   0.000       29.84       29.33       28.94       28.21    
        28.61       27.83       27.20       26.54       25.87       23.64       21.39       19.13       16.72       14.20    
        11.72       9.248       6.779       4.449       2.644       1.829       1.419      0.8951      0.4796      0.2506    
       0.5966      0.2915       0.000       0.000       0.000       0.000       0.000       33.05       37.35       35.20    
        28.00       27.72       32.11       30.69       27.16       26.51       29.25       27.50       32.81       29.55    
        25.45       25.74       25.81       25.20       25.18       25.15       24.23       26.73       24.57       23.97    
        24.20       23.07       23.28       22.71       22.11       21.67       22.12       21.51       21.06       20.49    
        21.92       20.71       20.91       20.34       19.88       19.54       19.67       18.89       18.83       17.62    
        19.57       18.59       18.33       17.87       17.21       16.73       16.98       17.57       16.50       16.01    
        14.91       15.43       14.46       13.95       13.28       12.65       10.82       8.930       7.012       5.193    
        3.745       2.755       2.051       1.697       2.229       1.859       1.367       1.030       1.506       1.155    
       0.6175      0.3392      0.2207      0.2050      0.3036      0.7637      0.3941      0.8773      0.6985      0.5003    
       0.2770      0.5148      0.2795       0.000       0.000       0.000       0.000       38.41       35.00       32.20    
        37.00       35.00       27.98       23.99       30.35       28.22       23.51       22.94       27.01       26.10    
        32.55       30.34       22.44       22.51       25.04       24.22       22.33       27.90       25.31       19.47    
        19.06       21.32       20.55       18.44       17.94       19.84       19.16       23.12       21.33       17.39    
        15.89       18.44       17.57       16.25       15.53       17.11       16.48       19.68       18.17       14.97    
        14.42       15.81       15.12       13.87       12.82       14.37       13.47       16.56       14.77       12.39    
        12.52       12.59       11.75       12.51       12.29       12.09       11.81       12.76       11.39       11.31    
        11.04       10.91       11.65       10.99       10.81       10.20       10.26       9.535       9.553       8.940    
        8.196       6.626       5.062       4.098       3.551       3.855       3.407       3.104       2.651       3.165    
        2.992       3.084       3.117       2.671       2.481       2.459       2.623       2.254       1.982       1.792    
        1.979       1.802       2.091       2.220       2.339       2.303       1.960       1.717       2.144       1.970    
        1.588       1.489       1.465       1.626       1.271       1.161       1.147       1.304       1.708       1.396    
       0.9376      0.8300       1.040      0.8349      0.4477      0.9900      0.4715       0.000       0.000       0.000    
        0.000       51.06       47.71       42.57       38.83       34.79       30.32       25.57       21.61       17.64    
        13.48       10.78       10.56       11.64       9.977       14.93       12.68       10.42       10.10       10.23    
        9.729       9.766       9.416       9.377       9.018       11.30       10.06       9.062       8.848       8.499    
        8.494       8.320       8.671       8.319       9.250       8.481       7.943       7.776       7.328       7.549    
        7.763       7.105       7.248       6.604       6.364       5.587       5.873       5.033       4.834       4.136    
        4.560       4.267       4.098       4.195       3.770       3.909       4.047       4.135       3.647       3.189    
        3.441       3.634       3.278       2.966       3.506       3.329       3.531       3.737       4.041       4.045    
        3.818       2.786       2.876       3.196       3.140       2.883       3.594       3.342       2.631       2.314    
        3.011       2.634       1.890       1.071      0.5017       1.152      0.5343       0.000       0.000       0.000    
        0.000       56.35       55.79       52.93       49.12       45.11       41.25       37.13       32.95       28.63    
        24.32       20.13       16.15       12.80       9.753       7.977       6.833       8.815       8.008       11.08    
        9.597       7.104       6.476       7.520       6.656       6.344       6.027       6.220       5.866       8.348    
        7.317       5.571       5.412       4.920       5.520       4.920       4.308       4.762       4.604       6.492    
        5.939       4.425       4.530       4.860       4.951       4.714       5.724       5.531       4.580       4.380    
        5.252       4.944       4.166       3.287       2.228       1.239      0.5684       1.310      0.5992       0.000    
        0.000       0.000       0.000       56.59       53.86       50.55       46.61       42.47       38.46       34.32    
        30.15       25.99       21.90       18.16       14.94       12.09       9.738       8.024       6.904       5.937    
        4.898       3.746       2.480       1.381      0.6288       1.445      0.6562       0.000       0.000       0.000    
        0.000       71.99       69.06       64.28       59.02       55.32       51.58       47.56       43.23       38.95    
        34.83       30.89       26.91       22.91       19.33       16.26       13.54       11.30       9.517       8.111    
        6.845       5.544       4.172       2.747       1.529      0.6961       1.629      0.7593       0.000       0.000    
        0.000       0.000       81.10       77.48       72.98       69.32       64.89       60.38       56.17       52.03    
        47.80       43.26       38.84       34.77       31.04       27.27       23.34       19.78       16.76       14.63    
        13.41       14.71       13.52       12.34       11.41       12.51       11.62       10.32       8.870       7.499    
        6.046       4.814       4.063       4.962       4.193       3.326       2.583       3.454       2.718       1.771    
       0.8930       1.915       1.070       0.000       0.000      0.2825       0.000      0.3866       0.000      0.4397    
        0.000       96.39       93.63       90.22       87.00       82.64       78.24       73.83       69.47       64.90    
        60.53       56.21       51.85       47.31       42.62       38.16       34.20       30.78       27.22       24.21    
        22.20       24.01       21.90       20.34       18.74       19.90       18.36       17.28       15.95       17.24    
        16.84       16.55       16.95       16.22       15.62       16.15       15.34       14.56       13.53       13.30    
        12.86       13.75       15.02       14.45       15.19       14.80       14.09       13.70       14.37       13.89    
        12.64       12.33       12.20       12.54       11.83       11.49       11.66       11.55       12.85       11.48    
        11.85       12.20       11.94       10.94       10.23       11.15       10.82       11.47       11.07       10.48    
        10.15       10.67       10.27       9.520       8.792       9.475       9.810       9.835       9.613       9.134    
        8.459       9.163       8.719       8.212       7.465       8.794       8.118       8.491       8.066       7.765    
        7.416       7.672       7.297       6.715       5.860       7.072       6.698       6.931       6.582       6.044    
        5.702       6.279       5.699       5.067       4.418       4.087       4.351       4.173       5.364       5.001    
        5.435       5.156       4.566       4.212       4.840       4.181       3.714       3.352       3.748       3.407    
        2.844       3.920       3.478       3.739       3.331       3.172       2.721       2.968       2.704       2.038    
        1.202       2.128       1.527       1.098       1.634       1.122      0.4846       0.000      0.5516       0.000    
       0.7023       0.000       0.000       0.000       109.3       99.75       105.5       101.4       98.04       96.56    
        98.45       97.89       98.17       97.88       96.84       94.92       93.15       95.22       93.46       91.60    
        89.78       92.04       90.12       87.35       83.05       78.25       73.56       68.98       64.25       59.74    
        55.50       51.14       46.38       41.41       38.22       36.01       37.28       35.09       34.06       32.37    
        33.11       31.40       30.91       29.60       30.20       29.36       28.13       26.15       28.66       28.04    
        28.87       28.62       27.04       25.73       27.53       26.13       23.78       22.14       20.96       21.94    
        20.35       24.18       23.01       23.64       22.63       22.13       21.50       22.52       22.08       20.11    
        18.28       20.85       19.99       18.71       17.88       19.31       18.63       21.08       19.84       17.42    
        17.16       18.09       17.62       16.57       18.65       17.50       15.60       14.60       16.35       15.21    
        13.52       12.52       14.06       12.99       11.60       10.70       11.93       10.92       9.828       8.959    
        9.893       8.903       8.134       7.300       7.897       6.933       6.492       6.099       5.876       5.793    
        5.447       5.970       5.105       5.503       4.945       5.039       4.568       4.066       4.231       3.405    
        3.235       2.810       2.492       2.604       2.286       2.704       2.083       2.268       1.894       1.982    
        1.613       1.436      0.7960       1.172      0.6199       1.459      0.6947       0.000       0.000       0.000    
        0.000       122.5       120.7       118.0       116.2       118.0       115.4       111.1       109.4       113.5    
        112.6       115.2       111.1       111.3       110.7       111.7       110.2       106.6       105.0       107.3    
        105.9       103.6       101.6       104.0       103.0       108.2       106.8       110.1       109.2       106.5    
        98.60       97.48       101.7       100.2       96.98       96.33       98.93       97.40       103.8       101.0    
        95.77       95.01       94.80       95.22       94.12       93.59       94.00       94.00       98.15       95.54    
        94.00       97.21       95.99       93.06       92.11       94.00       92.61       90.44       94.00       93.04    
        95.00       93.64       91.26       89.00       91.79       89.00       88.57       86.73       88.84       88.46    
        89.00       89.00       87.64       87.14       87.57       89.00       84.17       81.43       84.01       80.62    
        78.80       76.29       77.98       75.40       72.22       67.26       62.50       58.21       54.14       51.43    
        49.19       50.72       48.64       46.68       43.97       45.97       42.97       41.27       38.55       41.03    
        39.60       40.25       39.00       38.01       36.92       36.55       38.18       35.83       34.69       33.64    
        34.00       32.72       34.00       34.00       35.30       35.14       34.00       33.43       34.82       34.27    
        32.82       31.46       32.74       30.24       30.48       29.96       29.00       29.00       32.82       31.15    
        29.54       29.00       29.00       29.00       29.00       29.00       29.23       29.20       30.38       29.85    
        29.00       29.00       28.97       28.54       27.09       28.97       27.52       24.69       23.25       25.78    
        24.28       21.87       19.30       16.72       14.18       11.71       9.270       6.873       4.557       2.610    
        1.514       1.072      0.5053      0.7133      0.3401       0.000       0.000       0.000       0.000       131.0    
        127.3       124.2       122.9       124.4       122.2       127.9       123.3       122.7       124.6       125.3    
        121.9       120.7       121.6       120.1       116.9       118.2       121.1       121.0       125.1       124.1    
        118.3       115.4       122.4       119.8       112.9       110.2       116.7       113.1       107.3       104.2    
        110.4       107.2       101.2       98.85       103.9       102.2       104.9       102.3       101.6       100.8    
        103.5       101.6       96.28       94.67       97.93       95.71       93.04       91.28       96.62       93.23    
        100.7       98.19       100.2       98.60       95.72       89.79       86.72       83.51       87.29       85.12    
        91.58       87.72       82.35       80.97       83.58       82.05       79.00       79.00       80.33       78.57    
        84.51       81.22       77.71       76.48       76.99       75.99       74.09       77.82       75.87       79.13    
        77.12       73.50       71.65       74.73       71.16       71.73       68.79       71.65       70.35       72.49    
        70.49       68.40       66.29       67.78       64.00       66.33       64.28       65.34       64.73       64.00    
        64.00       64.10       63.09       64.00       63.03       61.97       59.85       61.70       60.32       61.05    
        59.00       58.84       57.72       55.58       57.40       56.30       56.76       55.80       55.06       54.11    
        54.00       53.49       53.49       51.31       53.07       51.90       52.48       51.49       50.40       49.00    
        50.90       50.93       50.42       49.62       49.77       49.00       48.91       47.88       49.00       48.16    
        49.00       49.00       50.75       50.51       49.40       46.38       44.40       46.48       44.00       42.23    
        41.76       43.22       39.83       47.32       44.71       39.00       39.00       39.62       39.97       38.81    
        42.65       41.27       37.25       36.02       39.64       38.08       34.84       32.11       29.42       26.33    
        23.41       20.53       17.60       14.71       11.84       8.935       5.904       2.664       0.000       0.000    
       0.2956      0.1662       0.000      6.1184E-02   0.000      2.4409E-02   0.000       0.000       0.000       0.000    
        136.4       137.6       137.2       138.5       138.6       134.7       132.4       136.1       135.3       137.3    
        136.0       134.3       133.1       134.7       133.4       129.8       127.3       130.8       128.2       123.8    
        127.6       127.1       130.4       132.2       130.8       131.4       133.1       132.6       129.2       128.0    
        131.8       130.3       130.4       131.1       131.8       126.2       125.4       128.4       127.9       124.1    
        122.1       127.0       122.8       130.5       128.5       129.9       128.7       125.8       121.1       117.5    
        125.8       117.7       114.9       113.8       114.0       114.0       122.2       117.3       113.4       112.1    
        112.8       112.3       110.9       108.2       111.0       109.1       114.1       111.1       106.5       102.8    
        107.2       105.2       103.1       107.7       104.8       100.3       97.02       101.8       98.59       92.65    
        86.24       80.23       76.61       83.01       80.03       74.03       70.46       77.38       74.57       67.85    
        65.64       71.93       69.35       62.06       59.00       64.10       62.38       59.00       58.43       61.51    
        60.70       66.60       64.35       57.47       57.23       59.82       59.14       56.89       62.43       60.68    
        55.24       53.90       58.94       57.40       52.92       51.78       55.97       54.53       50.42       46.28    
        42.12       38.18       34.60       31.21       27.86       24.70       21.56       18.34       15.07       11.82    
        8.523       4.881       0.000       0.000       0.000       0.000       0.000       0.000       0.000       0.000    
        0.000       0.000       0.000       0.000       0.000       0.000       0.000       0.000      1.8058E-02   0.000    
       1.5856E-02   0.000       0.000      1.5056E-02   0.000      1.3902E-02   0.000       147.7       147.4       141.2    
        143.1       142.1       140.3       139.4       141.2       142.5       143.9       144.8       145.3       147.0    
        146.3       141.2       140.2       145.6       144.3       138.1       136.2       135.3       138.9       136.8    
        142.6       142.1       145.7       146.8       143.1       141.5       143.8       141.7       134.9       132.7    
        138.1       136.0       133.5       132.3       134.5       133.0       138.5       134.9       130.3       126.9    
        131.5       128.1       121.9       115.0       108.4       102.3       96.29       90.57       85.47       80.76    
        75.99       71.29       67.11       63.20       59.46       55.36       50.85       45.90       41.03       36.62    
        32.79       29.22       25.76       22.39       18.93       15.29       11.62       8.205       4.973       1.926    
        0.000       2.780       1.589       0.000       0.000       0.000       0.000       0.000      0.8671      0.5230    
        1.426      0.6822      0.3837      0.8954      7.6444E-02  0.3505       0.000       0.000     -0.3416       0.000    
        0.000       0.000       0.000       0.000       0.000       0.000       0.000       0.000       0.000       0.000    
       1.0925E-02   0.000       0.000       0.000       0.000       0.000       0.000       0.000       0.000       175.5    
        174.5       174.0       171.7       174.2       173.0       165.3       156.5       155.5       153.4       169.4    
        162.7       170.6       167.4       163.3       150.9       150.8       152.1       149.4       147.8       149.5    
        148.2       162.3       161.0       146.7       149.6       145.9       152.4       151.6       159.8       157.0    
        155.8       161.4       157.5       149.4       149.0       152.4       152.1       148.6       151.1       153.1    
        151.9       155.6       156.4       158.4       156.8       153.0       148.3       146.0       148.0       145.1    
        142.6       146.6       141.8       137.8       131.3       123.4       116.3       109.5       103.9       98.94    
        94.27       90.08       86.20       82.16       77.85       73.51       69.09       64.55       59.65       54.56    
        49.04       43.56       38.53       34.08       30.19       27.31       25.61       27.70       26.06       23.95    
        22.24       24.47       22.81       20.43       18.40       21.06       18.78       15.35       12.20       10.21    
        11.75       9.594       8.504       7.089       8.425       7.594       7.995       7.054       6.958       6.640    
        6.366       6.763       5.798       4.544       6.078       5.511       6.063       5.515       4.707       3.320    
        2.478       2.212       2.747       2.281       3.789       3.249       3.888       3.040       3.024       2.777    
        3.313       2.489       2.381       1.164       2.024       1.320      0.4290       1.684       0.000       0.000    
        0.000       0.000       0.000       0.000       0.000       0.000       0.000       0.000       0.000       0.000    
       5.6183E-03   0.000       0.000       0.000       0.000       0.000       0.000       0.000       0.000       0.000    
        0.000       0.000       174.5       174.2       174.6       174.2       172.6       170.8       173.6       172.9    
        169.8       170.0       175.5       177.0       168.9       169.0       173.5       172.5       179.0       178.5    
        173.8       171.6       167.2       171.1       169.0       170.5       164.1       166.6       163.6       172.3    
        158.6       153.5       145.3       139.7       135.5       107.0       103.5       100.4       97.16       94.12    
        91.10       87.68       83.68       79.25       74.44       69.32       63.89       58.25       51.96       45.54    
        39.89       35.78       33.57       35.93       33.65       31.58       29.72       31.73       29.93       27.95    
        26.67       26.01       26.67       26.27       28.53       27.63       28.61       28.05       27.04       26.32    
        27.18       26.40       25.29       24.55       25.61       24.97       23.72       22.93       24.00       23.36    
        25.26       23.68       22.09       21.68       22.08       24.00       19.76       18.48       19.36       18.67    
        22.14       20.46       20.74       20.15       18.81       16.74       14.00       18.03       16.43       15.80    
        16.66       14.89       13.24       15.12       13.02       11.13       9.249       8.501       7.997       8.254    
        11.79       10.20       11.85       9.941       8.742       8.723       10.30       9.520       7.575       7.273    
        7.861       7.600       6.870       8.446       7.564       5.833       5.489       6.266       5.829       5.070    
        4.667       5.384       4.941       6.569       5.599       4.243       3.801       4.479       4.002       3.150    
        4.598       3.550       1.649       0.000       0.000       0.000       0.000       0.000      5.6403E-03   0.000    
        0.000       0.000       0.000       0.000       0.000       0.000       0.000       102.9       100.9       99.27    
        97.86       95.77       92.96       89.17       84.61       79.40       73.70       67.80       61.79       55.25    
        47.93       42.31       39.16       43.43       40.78       38.93       41.74       39.93       35.63       33.76    
        33.10       32.79       33.28       36.49       33.81       36.48       35.67       34.95       33.85       35.18    
        34.34       32.21       31.21       32.31       31.68       29.78       30.22       31.00       30.11       32.69    
        30.94       28.20       27.89       28.93       28.15       26.87       29.02       27.20       24.48       21.64    
        19.31       21.60       19.42       16.59       14.45       11.88       14.77       13.37       17.11       14.86    
        12.63       11.06       12.78       11.87       10.63       13.10       11.58       9.251       6.999       4.808    
        2.537       0.000       0.000      1.5232E-02   0.000      5.1407E-02   0.000      0.3217      0.1294       0.000    
       0.2471      0.1185       0.000       0.000       101.1       101.5       100.9       98.36       94.61       89.77    
        84.10       77.61       70.98       64.61       59.42       55.96       61.00       57.84       52.03       47.41    
        54.16       51.90       54.71       53.23       48.72       46.46       51.23       48.54       44.58       44.00    
        44.00       44.00       43.31       37.58       41.49       38.52       45.53       44.53       46.88       45.77    
        42.84       40.73       45.14       42.50       37.04       36.40       38.05       37.27       35.62       39.37    
        36.96       33.07       28.85       24.92       20.90       16.88       13.42       10.55       8.048       5.774    
        3.665       1.832      0.7933      0.3468       1.132      0.5021       0.000       0.000       0.000       0.000    
        108.4       107.2       104.2       100.1       94.96       88.55       80.90       74.77       70.80       75.83    
        72.01       67.05       64.20       68.73       64.72       70.11       67.77       63.74       63.72       65.08    
        63.54       62.53       61.59       62.93       61.41       61.22       58.77       60.34       59.61       62.07    
        61.79       63.26       62.13       59.79       57.93       52.01       57.17       54.00       52.37       49.63    
        52.23       50.04       55.81       51.62       47.73       46.52       47.91       46.61       45.95       43.63    
        47.02       44.48       47.19       47.65       48.55       47.96       45.89       41.26       38.16       42.48    
        39.24       34.66       29.94       25.67       21.57       17.70       14.31       11.38       8.806       6.507    
        4.465       2.716       1.399      0.6250       1.604      0.7360       0.000       0.000       0.000       0.000    
        118.3       114.8       110.4       105.5       100.2       97.27       102.5       99.68       93.98       89.47    
        96.76       91.49       84.21       79.68       84.46       83.91       85.26       81.85       78.29       78.65    
        81.07       80.53       77.12       75.27       77.28       75.53       73.30       71.99       72.78       72.44    
        78.02       77.01       79.76       77.88       72.88       72.67       75.77       74.54       70.47       69.73    
        72.55       70.35       66.93       72.27       69.07       63.94       60.49       65.69       61.93       56.27    
        53.41       51.94       53.41       52.21       57.90       54.85       58.89       56.13       55.28       53.29    
        55.60       54.14       51.01       49.06       50.41       49.61       47.13       51.63       48.64       42.49    
        35.99       30.86       26.38       22.15       18.25       14.81       11.84       9.233       6.931       4.924    
        3.189       1.789      0.8918       1.948       1.069       0.000       0.000      0.2837       0.000      0.3869    
        0.000      0.4348       0.000       127.0       126.4       129.9       129.9       129.9       132.9       135.6    
        123.1       119.8       127.6       125.8       130.0       127.4       124.7       121.8       129.3       123.7    
        116.2       113.0       119.2       117.0       120.3       117.9       115.1       113.4       116.0       113.2    
        110.3       107.5       112.5       111.2       114.0       113.1       110.0       108.2       109.4       109.2    
        104.6       101.9       100.7       102.6       100.8       106.4       105.8       107.6       104.9       103.2    
        100.8       104.0       102.6       100.7       100.4       100.8       99.49       98.82       93.77       97.05    
        97.44       100.4       97.26       88.61       81.54       92.58       87.31       81.32       82.04       85.11    
        84.03       92.05       87.45       81.27       77.70       84.01       80.27       74.47       71.11       76.58    
        72.97       67.70       64.20       69.53       66.09       66.71       68.14       65.84       60.17       57.64    
        61.68       58.56       56.86       55.16       57.78       56.22       63.81       62.78       64.00       64.00    
        58.94       53.41       50.12       55.13       51.38       44.77       37.49       31.80       26.94       22.48    
        18.47       14.98       11.94       9.303       7.030       5.080       3.388       2.052       1.173       2.123    
        1.262      0.4642       0.000      0.4920       0.000      0.5365       0.000      0.6485      0.2502       0.000    
        0.000       131.6       135.3       135.8       132.3       131.7       130.1       129.7       128.1       121.9    
        123.3       124.2       123.1       127.4       124.5       120.6       119.1       121.6       120.1       117.3    
        122.1       119.9       115.0       111.3       109.0       113.2       111.4       118.0       115.0       108.9    
        107.1       110.2       108.7       105.5       111.6       108.1       101.4       93.25       86.47       82.48    
        88.94       85.36       80.59       86.20       83.15       78.68       76.86       80.15       77.99       74.39    
        81.50       78.51       81.91       80.26       77.41       76.59       78.09       76.04       71.28       69.74    
        71.71       69.00       69.00       65.56       69.00       65.20       73.70       71.36       75.24       73.20    
        67.12       63.05       59.43       63.56       60.13       54.50       46.79       39.12       32.60       27.06    
        22.37       18.37       14.86       11.71       8.962       6.702       4.903       3.319       1.758      0.5595    
        0.000       0.000      0.6291       0.000       0.000       129.6       128.6       126.0       123.3       122.0    
        124.0       123.0       121.0       120.8       122.6       123.8       119.5       116.9       123.3       118.4    
        123.1       124.0       122.6       122.3       122.4       116.8       121.2       121.5       114.9       112.9    
        116.4       114.4       110.1       118.0       116.1       119.0       115.5       112.6       109.7       112.8    
        108.4       105.8       101.7       107.3       105.3       106.8       105.5       103.3       101.7       103.1    
        101.3       97.42       93.47       99.00       97.78       99.00       98.14       93.45       92.29       96.08    
        95.05       91.15       88.43       90.79       90.07       87.19       85.32       87.86       85.97       91.43    
        90.91       93.67       92.19       88.06       82.99       78.20       83.20       79.17       72.94       68.21    
        74.41       69.65       63.04       55.58       48.34       40.63       32.89       26.78       23.24       20.96    
        22.91       20.41       18.93       17.06       18.34       16.51       15.29       13.60       14.81       13.20    
        12.00       10.42       11.61       9.988       8.885       7.593       8.795       7.935       8.475       7.060    
        7.557       6.628       7.887       5.858       6.489       5.644       6.059       5.790       5.292       5.574    
        5.399       5.099       5.003       4.823       4.895       4.163       4.569       3.897       3.440       2.729    
        3.239       2.544       2.006       1.289       2.069       1.724       1.978       1.724       1.300      0.9149    
        1.136      0.7700      0.7346       0.000       0.000      0.1710       0.000       1.428      0.5498      0.9639    
       0.6399      0.3174       0.000      0.3317       0.000       127.7       125.7       123.3       121.6       119.7    
        120.7       118.6       116.3       111.9       115.9       112.4       107.4       106.2       108.9       107.2    
        104.3       108.9       105.5       100.7       97.15       102.2       98.65       93.74       89.38       94.53    
        90.16       83.34       74.45       65.63       57.11       48.78       41.20       35.15       30.97       35.16    
        30.19       27.81       25.06       27.00       24.61       22.41       20.35       18.90       19.86       17.51    
        22.20       20.10       18.99       20.08       19.69       18.15       16.98       18.06       17.39       16.24    
        15.48       16.68       15.95       18.38       17.01       14.71       13.94       15.22       14.48       13.19    
        12.44       13.75       13.01       15.61       14.19       11.68       10.92       12.26       11.51       10.17    
        9.418       10.77       10.01       12.75       11.29       8.655       7.439       9.251       8.451       7.464    
        9.870       8.635       6.342       5.239       4.349       5.815       5.264       7.496       6.443       4.636    
        4.075       5.005       4.613       3.791       3.505       4.266       3.938       5.572       4.773       3.220    
        2.931       3.613       3.295       2.535       2.235       2.972       2.719       4.027       3.339       2.734    
        2.069       2.613       2.224       1.490       2.672       1.868      0.9019      0.3560       0.000      0.3823    
        0.000       1.068      0.4166       0.000      0.4468       0.000       127.2       125.2       122.3       118.9    
        114.1       108.4       101.5       93.16       85.28       76.75       67.91       59.44       50.57       42.07    
        35.17       30.64       25.72       31.67       28.66       36.28       32.93       30.01       31.20       29.33    
        26.28       25.18       27.37       25.85       24.61       23.80       23.31       24.04       27.77       24.60    
        22.74       21.74       22.62       21.76       20.79       19.98       20.27       20.14       22.43       21.17    
        19.20       17.93       20.11       18.89       16.46       13.71       11.01       8.599       6.528       4.698    
        2.842       1.234      0.4814       0.000      0.5123       0.000       1.394      0.5463       0.000      0.5795    
        0.000       124.1       121.6       118.3       114.0       108.3       102.1       94.88       87.12       78.10    
        69.34       61.59       53.96       49.68       54.86       48.84       46.27       40.94       45.98       43.18    
        43.61       39.96       40.44       37.77       38.92       37.03       37.26       34.87       36.70       34.43    
        32.40       30.75       33.63       31.66       36.14       35.06       36.01       35.02       32.88       29.00    
        25.63       29.46       26.35       23.49       21.10       18.52       15.77       13.05       10.48       8.116    
        5.912       3.589       1.574      0.6170       0.000      0.6524       0.000       1.770      0.6952       0.000    
       0.7444       0.000       121.1       118.8       113.8       107.4       102.2       95.58       87.89       79.33    
        70.29       63.81       57.36       60.02       56.48       52.60       50.19       51.03       51.08       47.92    
        44.88       46.36       43.16       48.05       46.50       47.35       46.73       45.21       44.12       45.65    
        44.42       41.66       40.68       42.46       41.11       38.80       42.17       39.00       35.68       32.05    
        35.24       31.79       29.20       26.11       23.36       20.64       17.75       14.85       12.10       9.551    
        7.086       4.403       2.027      0.8121       0.000      0.9243       0.000       2.393      0.9144       0.000    
        0.000       0.000       121.5       119.7       115.4       109.0       102.3       94.70       87.04       78.41    
        72.20       62.54       66.52       59.80       55.72       56.78       54.95       57.39       50.24       51.99    
        53.95       49.37       49.21       50.91       49.14       52.71       52.53       53.55       52.14       50.03    
        47.61       45.49       47.50       44.86       40.13       34.28       31.32       28.42       25.62       22.76    
        19.61       16.47       13.46       10.78       8.248       5.239       2.742       1.228       3.095       1.606    
        0.000       0.000       0.000      0.4498       0.000      0.6574       0.000       0.000       122.0       120.5    
        116.9       111.6       104.8       94.80       86.61       83.63       84.59       77.05       75.46       67.36    
        71.27       63.95       68.72       64.80       63.15       61.90       64.94       63.73       63.67       57.67    
        60.21       59.34       58.35       55.35       56.67       54.73       60.88       61.63       54.36       52.16    
        48.54       49.82       46.18       44.48       39.22       36.17       33.33       30.59       27.90       25.01    
        21.34       17.89       14.36       11.62       9.515       6.700       3.187      0.5651       0.000       0.000    
        0.000       1.191      0.3975       0.000      0.6517      0.3720       124.6       122.8       120.7       116.0    
        108.1       99.55       97.21       91.60       97.67       95.53       81.03       72.32       68.97       69.00    
        81.77       81.47       66.71       65.96       67.08       66.19       67.65       68.66       68.00       67.19    
        45.67       43.36       40.18       37.42       34.90       32.46       30.21       27.71       24.01       20.93    
        125.0       122.8       118.8       108.8       102.8       96.26       96.59       88.97       89.51       85.53    
        83.65       76.66       80.04       74.37       69.52       71.02       98.16       98.13       39.87       38.02    
        35.55       33.07       31.79       30.28       134.5       131.5       127.4       124.5       120.5       123.6    
        117.6       114.8       108.3       111.0       102.2       110.4       104.2       100.3       97.90       102.8    
        101.0       100.2       94.25       95.58       93.28       99.10       97.04       90.98       86.39       94.86    
        92.20       90.47       85.78       81.87       81.63       79.24       84.09       88.68       90.53       90.55    
        82.81       83.57       88.50       88.06       76.94       72.81       75.56       78.78       81.02       86.33    
        86.12       136.0       131.6       130.9       130.4       129.2       125.8       129.9       128.3       130.2    
        128.2       126.2       123.9       125.7       123.3       121.7       116.6       121.3       119.0       121.0    
        118.6       118.2       115.8       116.0       111.0       106.6       111.6       109.2       106.0       111.5    
        107.9       113.5       111.2       109.7       103.2       99.85       109.1       106.7       96.53       93.44    
        102.7       98.97       93.80       130.3       128.7       125.7       128.7       127.2       123.4       125.8    
        113.4       112.6       114.8       114.9       112.5       107.6       98.15       128.2       127.1       120.2    
        114.7       113.8    

 HEAD WILL BE SAVED ON UNIT 1021 AT END OF TIME STEP    1, STRESS PERIOD    1


  VOLUME BUDGET FOR ENTIRE MODEL AT END OF TIME STEP    1, STRESS PERIOD   1
  ---------------------------------------------------------------------------------------------------

     CUMULATIVE VOLUME      L**3       RATES FOR THIS TIME STEP      L**3/T          PACKAGE NAME    
     ------------------                 ------------------------                     ----------------

           IN:                                      IN:
           ---                                      ---
                 RCH =           2.9815                   RCH =           2.9815     RCHA            
                 CHD =           0.0000                   CHD =           0.0000     SEA             
                 CHD =           0.0000                   CHD =           0.0000     ETA             
                 CHD =       3.6855E-02                   CHD =       3.6855E-02     AGY             
                 CHD =           0.3179                   CHD =           0.3179     TET             
                 CHD =           0.4414                   CHD =           0.4414     BOL             
                 CHD =           0.4916                   CHD =           0.4916     CANT            
                 CHD =           0.6248                   CHD =           0.6248     REA             
                 CHD =       8.2497E-02                   CHD =       8.2497E-02     TECH            

            TOTAL IN =           4.9765              TOTAL IN =           4.9765

          OUT:                                     OUT:
          ----                                     ----
                 RCH =           0.0000                   RCH =           0.0000     RCHA            
                 CHD =           0.5330                   CHD =           0.5330     SEA             
                 CHD =           0.6164                   CHD =           0.6164     ETA             
                 CHD =           0.5436                   CHD =           0.5436     AGY             
                 CHD =           1.4276                   CHD =           1.4276     TET             
                 CHD =           0.1801                   CHD =           0.1801     BOL             
                 CHD =           0.4367                   CHD =           0.4367     CANT            
                 CHD =           0.6543                   CHD =           0.6543     REA             
                 CHD =           0.5846                   CHD =           0.5846     TECH            

           TOTAL OUT =           4.9764             TOTAL OUT =           4.9764

            IN - OUT =       4.2041E-05              IN - OUT =       4.2041E-05

 PERCENT DISCREPANCY =           0.00     PERCENT DISCREPANCY =           0.00




         TIME SUMMARY AT END OF TIME STEP    1 IN STRESS PERIOD    1
                    SECONDS     MINUTES      HOURS       DAYS        YEARS
                    -----------------------------------------------------------
   TIME STEP LENGTH  1.0000     1.66667E-02 2.77778E-04 1.15741E-05 3.16881E-08
 STRESS PERIOD TIME  1.0000     1.66667E-02 2.77778E-04 1.15741E-05 3.16881E-08
         TOTAL TIME  1.0000     1.66667E-02 2.77778E-04 1.15741E-05 3.16881E-08
