                                   MODFLOW 6
                U.S. GEOLOGICAL SURVEY MODULAR HYDROLOGIC MODEL
                          GROUNDWATER FLOW MODEL (GWF)
                            VERSION 6.0.4 03/13/2019

   MODFLOW 6 compiled Mar 21 2019 15:37:31 with IFORT compiler (ver. 19.0.0)

This software has been approved for release by the U.S. Geological 
Survey (USGS). Although the software has been subjected to rigorous 
review, the USGS reserves the right to update the software as needed 
pursuant to further analysis and review. No warranty, expressed or 
implied, is made by the USGS or the U.S. Government as to the 
functionality of the software and related material nor shall the 
fact of release constitute any such warranty. Furthermore, the 
software is released on condition that neither the USGS nor the U.S. 
Government shall be held liable for any damages resulting from its 
authorized or unauthorized use. Also refer to the USGS Water 
Resources Software User Rights Notice for complete use, copyright, 
and distribution information.


MODFLOW was compiled using uniform precision.
Precision of REAL variables: 15


 OPENED 3D_cartes.dis
 FILE TYPE:DIS6                   UNIT 1005   STATUS:OLD                 
 FORMAT:FORMATTED              ACCESS:SEQUENTIAL          
 ACTION:READ                


 OPENED 3D_cartes.ic
 FILE TYPE:IC6                    UNIT 1006   STATUS:OLD                 
 FORMAT:FORMATTED              ACCESS:SEQUENTIAL          
 ACTION:READ                


 OPENED 3D_cartes.oc
 FILE TYPE:OC6                    UNIT 1007   STATUS:OLD                 
 FORMAT:FORMATTED              ACCESS:SEQUENTIAL          
 ACTION:READ                


 OPENED 3D_cartes.obs
 FILE TYPE:OBS6                   UNIT 1008   STATUS:OLD                 
 FORMAT:FORMATTED              ACCESS:SEQUENTIAL          
 ACTION:READ                


 OPENED 3D_cartes.npf
 FILE TYPE:NPF6                   UNIT 1009   STATUS:OLD                 
 FORMAT:FORMATTED              ACCESS:SEQUENTIAL          
 ACTION:READ                


 OPENED 3D_cartes.wel
 FILE TYPE:WEL6                   UNIT 1010   STATUS:OLD                 
 FORMAT:FORMATTED              ACCESS:SEQUENTIAL          
 ACTION:READ                


 OPENED 3D_cartes.rch
 FILE TYPE:RCH6                   UNIT 1011   STATUS:OLD                 
 FORMAT:FORMATTED              ACCESS:SEQUENTIAL          
 ACTION:READ                


 OPENED irri.rch
 FILE TYPE:RCH6                   UNIT 1012   STATUS:OLD                 
 FORMAT:FORMATTED              ACCESS:SEQUENTIAL          
 ACTION:READ                


 OPENED p_agri.rch
 FILE TYPE:RCH6                   UNIT 1013   STATUS:OLD                 
 FORMAT:FORMATTED              ACCESS:SEQUENTIAL          
 ACTION:READ                


 OPENED Corb.wel
 FILE TYPE:WEL6                   UNIT 1014   STATUS:OLD                 
 FORMAT:FORMATTED              ACCESS:SEQUENTIAL          
 ACTION:READ                


 OPENED sea.chd
 FILE TYPE:CHD6                   UNIT 1015   STATUS:OLD                 
 FORMAT:FORMATTED              ACCESS:SEQUENTIAL          
 ACTION:READ                


 OPENED thuir.chd
 FILE TYPE:CHD6                   UNIT 1016   STATUS:OLD                 
 FORMAT:FORMATTED              ACCESS:SEQUENTIAL          
 ACTION:READ                


 OPENED eta.drn
 FILE TYPE:DRN6                   UNIT 1017   STATUS:OLD                 
 FORMAT:FORMATTED              ACCESS:SEQUENTIAL          
 ACTION:READ                


 OPENED agly.riv
 FILE TYPE:RIV6                   UNIT 1018   STATUS:OLD                 
 FORMAT:FORMATTED              ACCESS:SEQUENTIAL          
 ACTION:READ                


 OPENED Tet.riv
 FILE TYPE:RIV6                   UNIT 1019   STATUS:OLD                 
 FORMAT:FORMATTED              ACCESS:SEQUENTIAL          
 ACTION:READ                


 OPENED Rea.riv
 FILE TYPE:RIV6                   UNIT 1020   STATUS:OLD                 
 FORMAT:FORMATTED              ACCESS:SEQUENTIAL          
 ACTION:READ                


 OPENED Cant.riv
 FILE TYPE:RIV6                   UNIT 1021   STATUS:OLD                 
 FORMAT:FORMATTED              ACCESS:SEQUENTIAL          
 ACTION:READ                


 OPENED Tech.riv
 FILE TYPE:RIV6                   UNIT 1022   STATUS:OLD                 
 FORMAT:FORMATTED              ACCESS:SEQUENTIAL          
 ACTION:READ                


 OPENED Bol.riv
 FILE TYPE:RIV6                   UNIT 1023   STATUS:OLD                 
 FORMAT:FORMATTED              ACCESS:SEQUENTIAL          
 ACTION:READ                


 DIS -- STRUCTURED GRID DISCRETIZATION PACKAGE, VERSION 2 : 3/27/2014 - INPUT READ FROM UNIT 1005


 PROCESSING DISCRETIZATION OPTIONS
    XORIGIN SPECIFIED AS     664525.000000000    
    YORIGIN SPECIFIED AS     6152875.00000000    
 END OF DISCRETIZATION OPTIONS
 MODEL LENGTH UNIT IS UNDEFINED
 PROCESSING DISCRETIZATION DIMENSIONS
    NLAY =       5
    NROW =     182
    NCOL =     183
 END OF DISCRETIZATION DIMENSIONS
 PROCESSING GRIDDATA
 END PROCESSING GRIDDATA

 THE SPECIFIED IDOMAIN RESULTS IN A REDUCED NUMBER OF CELLS.
 NUMBER OF USER NODES:  166530
 NUMBER OF NODES IN SOLUTION:   70814



 NPF -- NODE PROPERTY FLOW PACKAGE, VERSION 1, 3/30/2015 INPUT READ FROM UNIT 1009


 PROCESSING NPF OPTIONS
    CELL-BY-CELL FLOW INFORMATION WILL BE SAVED TO BINARY FILE WHENEVER ICBCFL IS NOT ZERO.
 END OF NPF OPTIONS

 WEL   -- WEL PACKAGE, VERSION 8, 2/22/2014 INPUT READ FROM UNIT 1010

 PROCESSING WEL OPTIONS
    FLOWS WILL BE SAVED TO BUDGET FILE SPECIFIED IN OUTPUT CONTROL
 END OF WEL OPTIONS

 PROCESSING WEL DIMENSIONS
    MAXBOUND =     269
 END OF WEL DIMENSIONS

 WEL   -- WEL PACKAGE, VERSION 8, 2/22/2014 INPUT READ FROM UNIT 1014

 PROCESSING WEL OPTIONS
    FLOWS WILL BE SAVED TO BUDGET FILE SPECIFIED IN OUTPUT CONTROL
 END OF WEL OPTIONS

 PROCESSING WEL DIMENSIONS
    MAXBOUND =      97
 END OF WEL DIMENSIONS

 DRN   -- DRN PACKAGE, VERSION 8, 2/22/2014 INPUT READ FROM UNIT 1017

 PROCESSING DRN OPTIONS
    FLOWS WILL BE SAVED TO BUDGET FILE SPECIFIED IN OUTPUT CONTROL
 END OF DRN OPTIONS

 PROCESSING DRN DIMENSIONS
    MAXBOUND =     644
 END OF DRN DIMENSIONS

 RIV   -- RIV PACKAGE, VERSION 8, 2/22/2014 INPUT READ FROM UNIT 1018

 PROCESSING RIV OPTIONS
    FLOWS WILL BE SAVED TO BUDGET FILE SPECIFIED IN OUTPUT CONTROL
 END OF RIV OPTIONS

 PROCESSING RIV DIMENSIONS
    MAXBOUND =      86
 END OF RIV DIMENSIONS

 RIV   -- RIV PACKAGE, VERSION 8, 2/22/2014 INPUT READ FROM UNIT 1019

 PROCESSING RIV OPTIONS
    FLOWS WILL BE SAVED TO BUDGET FILE SPECIFIED IN OUTPUT CONTROL
 END OF RIV OPTIONS

 PROCESSING RIV DIMENSIONS
    MAXBOUND =     173
 END OF RIV DIMENSIONS

 RIV   -- RIV PACKAGE, VERSION 8, 2/22/2014 INPUT READ FROM UNIT 1020

 PROCESSING RIV OPTIONS
    FLOWS WILL BE SAVED TO BUDGET FILE SPECIFIED IN OUTPUT CONTROL
 END OF RIV OPTIONS

 PROCESSING RIV DIMENSIONS
    MAXBOUND =     129
 END OF RIV DIMENSIONS

 RIV   -- RIV PACKAGE, VERSION 8, 2/22/2014 INPUT READ FROM UNIT 1021

 PROCESSING RIV OPTIONS
    FLOWS WILL BE SAVED TO BUDGET FILE SPECIFIED IN OUTPUT CONTROL
 END OF RIV OPTIONS

 PROCESSING RIV DIMENSIONS
    MAXBOUND =      66
 END OF RIV DIMENSIONS

 RIV   -- RIV PACKAGE, VERSION 8, 2/22/2014 INPUT READ FROM UNIT 1022

 PROCESSING RIV OPTIONS
    FLOWS WILL BE SAVED TO BUDGET FILE SPECIFIED IN OUTPUT CONTROL
 END OF RIV OPTIONS

 PROCESSING RIV DIMENSIONS
    MAXBOUND =     113
 END OF RIV DIMENSIONS

 RIV   -- RIV PACKAGE, VERSION 8, 2/22/2014 INPUT READ FROM UNIT 1023

 PROCESSING RIV OPTIONS
    FLOWS WILL BE SAVED TO BUDGET FILE SPECIFIED IN OUTPUT CONTROL
 END OF RIV OPTIONS

 PROCESSING RIV DIMENSIONS
    MAXBOUND =      47
 END OF RIV DIMENSIONS

 RCH   -- RCH PACKAGE, VERSION 8, 2/22/2014 INPUT READ FROM UNIT 1011

 PROCESSING RCH OPTIONS
    FLOWS WILL BE SAVED TO BUDGET FILE SPECIFIED IN OUTPUT CONTROL
 END OF RCH OPTIONS

 PROCESSING RCH DIMENSIONS
    MAXBOUND =   18569
 END OF RCH DIMENSIONS

 RCH   -- RCH PACKAGE, VERSION 8, 2/22/2014 INPUT READ FROM UNIT 1012

 PROCESSING RCH OPTIONS
    FLOWS WILL BE SAVED TO BUDGET FILE SPECIFIED IN OUTPUT CONTROL
 END OF RCH OPTIONS

 PROCESSING RCH DIMENSIONS
    MAXBOUND =   18569
 END OF RCH DIMENSIONS

 RCH   -- RCH PACKAGE, VERSION 8, 2/22/2014 INPUT READ FROM UNIT 1013

 PROCESSING RCH OPTIONS
    FLOWS WILL BE SAVED TO BUDGET FILE SPECIFIED IN OUTPUT CONTROL
 END OF RCH OPTIONS

 PROCESSING RCH DIMENSIONS
    MAXBOUND =    3583
 END OF RCH DIMENSIONS

 CHD   -- CHD PACKAGE, VERSION 8, 2/22/2014 INPUT READ FROM UNIT 1015

 PROCESSING CHD OPTIONS
    FLOWS WILL BE SAVED TO BUDGET FILE SPECIFIED IN OUTPUT CONTROL
 END OF CHD OPTIONS

 PROCESSING CHD DIMENSIONS
    MAXBOUND =    7350
 END OF CHD DIMENSIONS

 CHD   -- CHD PACKAGE, VERSION 8, 2/22/2014 INPUT READ FROM UNIT 1016

 PROCESSING CHD OPTIONS
    FLOWS WILL BE SAVED TO BUDGET FILE SPECIFIED IN OUTPUT CONTROL
 END OF CHD OPTIONS

 PROCESSING CHD DIMENSIONS
    MAXBOUND =      17
 END OF CHD DIMENSIONS

 IC -- INITIAL CONDITIONS PACKAGE, VERSION 8, 3/28/2015 INPUT READ FROM UNIT 1006
 PROCESSING GRIDDATA
 END PROCESSING GRIDDATA
 PROCESSING GRIDDATA

                ICELLTYPE = 0
 K33 not provided.  Assuming K33 = K.
 K22 not provided.  Assuming K22 = K.
 END PROCESSING GRIDDATA

The observation utility is active for "3D_CARTES"

Processing observation options:

Text output number of digits of precision set to: 10
The PRINT_INPUT option has been specified.


Observations read from file "3D_cartes.obs":
Name                                      Type                             Time         Location data
----------------------------------------  -------------------------------  -----------  --------------------------
1_45_97                                   Continuous HEAD                  All times    "2 46 98"
1_45_98                                   Continuous HEAD                  All times    "2 46 99"
1_46_97                                   Continuous HEAD                  All times    "2 47 98"
1_49_94                                   Continuous HEAD                  All times    "2 50 95"
1_49_104                                  Continuous HEAD                  All times    "2 50 105"
1_50_98                                   Continuous HEAD                  All times    "2 51 99"
1_50_100                                  Continuous HEAD                  All times    "2 51 101"
1_51_94                                   Continuous HEAD                  All times    "2 52 95"
1_52_103                                  Continuous HEAD                  All times    "2 53 104"
1_52_128                                  Continuous HEAD                  All times    "2 53 129"
1_53_101                                  Continuous HEAD                  All times    "2 54 102"
1_53_104                                  Continuous HEAD                  All times    "2 54 105"
1_53_128                                  Continuous HEAD                  All times    "2 54 129"
1_54_95                                   Continuous HEAD                  All times    "2 55 96"
1_54_103                                  Continuous HEAD                  All times    "2 55 104"
1_54_107                                  Continuous HEAD                  All times    "2 55 108"
1_54_128                                  Continuous HEAD                  All times    "2 55 129"
1_55_104                                  Continuous HEAD                  All times    "2 56 105"
1_55_127                                  Continuous HEAD                  All times    "2 56 128"
1_56_95                                   Continuous HEAD                  All times    "2 57 96"
1_56_97                                   Continuous HEAD                  All times    "2 57 98"
1_57_93                                   Continuous HEAD                  All times    "2 58 94"
1_57_96                                   Continuous HEAD                  All times    "2 58 97"
1_57_106                                  Continuous HEAD                  All times    "2 58 107"
1_57_127                                  Continuous HEAD                  All times    "2 58 128"
1_58_98                                   Continuous HEAD                  All times    "2 59 99"
1_58_103                                  Continuous HEAD                  All times    "2 59 104"
1_58_104                                  Continuous HEAD                  All times    "2 59 105"
1_58_106                                  Continuous HEAD                  All times    "2 59 107"
1_59_99                                   Continuous HEAD                  All times    "2 60 100"
1_60_104                                  Continuous HEAD                  All times    "2 61 105"
1_60_105                                  Continuous HEAD                  All times    "2 61 106"
1_60_107                                  Continuous HEAD                  All times    "2 61 108"
1_60_128                                  Continuous HEAD                  All times    "2 61 129"
1_61_103                                  Continuous HEAD                  All times    "2 62 104"
1_61_121                                  Continuous HEAD                  All times    "2 62 122"
1_62_102                                  Continuous HEAD                  All times    "2 63 103"
1_62_110                                  Continuous HEAD                  All times    "2 63 111"
1_62_111                                  Continuous HEAD                  All times    "2 63 112"
1_62_113                                  Continuous HEAD                  All times    "2 63 114"
1_62_116                                  Continuous HEAD                  All times    "2 63 117"
1_63_98                                   Continuous HEAD                  All times    "2 64 99"
1_63_101                                  Continuous HEAD                  All times    "2 64 102"
1_63_105                                  Continuous HEAD                  All times    "2 64 106"
1_63_106                                  Continuous HEAD                  All times    "2 64 107"
1_63_107                                  Continuous HEAD                  All times    "2 64 108"
1_63_111                                  Continuous HEAD                  All times    "2 64 112"
1_63_127                                  Continuous HEAD                  All times    "2 64 128"
1_63_128                                  Continuous HEAD                  All times    "2 64 129"
1_64_76                                   Continuous HEAD                  All times    "2 65 77"
1_64_84                                   Continuous HEAD                  All times    "2 65 85"
1_64_103                                  Continuous HEAD                  All times    "2 65 104"
1_64_109                                  Continuous HEAD                  All times    "2 65 110"
1_64_111                                  Continuous HEAD                  All times    "2 65 112"
1_64_114                                  Continuous HEAD                  All times    "2 65 115"
1_64_121                                  Continuous HEAD                  All times    "2 65 122"
1_64_122                                  Continuous HEAD                  All times    "2 65 123"
1_64_125                                  Continuous HEAD                  All times    "2 65 126"
1_65_79                                   Continuous HEAD                  All times    "2 66 80"
1_65_87                                   Continuous HEAD                  All times    "2 66 88"
1_65_93                                   Continuous HEAD                  All times    "2 66 94"
1_65_102                                  Continuous HEAD                  All times    "2 66 103"
1_65_105                                  Continuous HEAD                  All times    "2 66 106"
1_65_106                                  Continuous HEAD                  All times    "2 66 107"
1_65_108                                  Continuous HEAD                  All times    "2 66 109"
1_65_114                                  Continuous HEAD                  All times    "2 66 115"
1_65_115                                  Continuous HEAD                  All times    "2 66 116"
1_65_117                                  Continuous HEAD                  All times    "2 66 118"
1_66_77                                   Continuous HEAD                  All times    "2 67 78"
1_66_79                                   Continuous HEAD                  All times    "2 67 80"
1_66_103                                  Continuous HEAD                  All times    "2 67 104"
1_66_109                                  Continuous HEAD                  All times    "2 67 110"
1_66_112                                  Continuous HEAD                  All times    "2 67 113"
1_66_115                                  Continuous HEAD                  All times    "2 67 116"
1_66_117                                  Continuous HEAD                  All times    "2 67 118"
1_66_119                                  Continuous HEAD                  All times    "2 67 120"
1_66_120                                  Continuous HEAD                  All times    "2 67 121"
1_66_126                                  Continuous HEAD                  All times    "2 67 127"
1_66_127                                  Continuous HEAD                  All times    "2 67 128"
1_67_76                                   Continuous HEAD                  All times    "2 68 77"
1_67_87                                   Continuous HEAD                  All times    "2 68 88"
1_67_96                                   Continuous HEAD                  All times    "2 68 97"
1_67_98                                   Continuous HEAD                  All times    "2 68 99"
1_67_109                                  Continuous HEAD                  All times    "2 68 110"
1_67_111                                  Continuous HEAD                  All times    "2 68 112"
1_67_114                                  Continuous HEAD                  All times    "2 68 115"
1_67_118                                  Continuous HEAD                  All times    "2 68 119"
1_67_121                                  Continuous HEAD                  All times    "2 68 122"
1_67_125                                  Continuous HEAD                  All times    "2 68 126"
1_68_75                                   Continuous HEAD                  All times    "2 69 76"
1_68_76                                   Continuous HEAD                  All times    "2 69 77"
1_68_77                                   Continuous HEAD                  All times    "2 69 78"
1_68_82                                   Continuous HEAD                  All times    "2 69 83"
1_68_84                                   Continuous HEAD                  All times    "2 69 85"
1_68_100                                  Continuous HEAD                  All times    "2 69 101"
1_68_103                                  Continuous HEAD                  All times    "2 69 104"
1_68_105                                  Continuous HEAD                  All times    "2 69 106"
1_68_106                                  Continuous HEAD                  All times    "2 69 107"
1_68_107                                  Continuous HEAD                  All times    "2 69 108"
1_68_111                                  Continuous HEAD                  All times    "2 69 112"
1_68_112                                  Continuous HEAD                  All times    "2 69 113"
1_68_114                                  Continuous HEAD                  All times    "2 69 115"
1_68_116                                  Continuous HEAD                  All times    "2 69 117"
1_68_117                                  Continuous HEAD                  All times    "2 69 118"
1_68_118                                  Continuous HEAD                  All times    "2 69 119"
1_68_120                                  Continuous HEAD                  All times    "2 69 121"
1_68_121                                  Continuous HEAD                  All times    "2 69 122"
1_68_122                                  Continuous HEAD                  All times    "2 69 123"
1_68_123                                  Continuous HEAD                  All times    "2 69 124"
1_68_125                                  Continuous HEAD                  All times    "2 69 126"
1_69_74                                   Continuous HEAD                  All times    "2 70 75"
1_69_76                                   Continuous HEAD                  All times    "2 70 77"
1_69_78                                   Continuous HEAD                  All times    "2 70 79"
1_69_81                                   Continuous HEAD                  All times    "2 70 82"
1_69_82                                   Continuous HEAD                  All times    "2 70 83"
1_69_84                                   Continuous HEAD                  All times    "2 70 85"
1_69_86                                   Continuous HEAD                  All times    "2 70 87"
1_69_105                                  Continuous HEAD                  All times    "2 70 106"
1_69_114                                  Continuous HEAD                  All times    "2 70 115"
1_69_116                                  Continuous HEAD                  All times    "2 70 117"
1_69_118                                  Continuous HEAD                  All times    "2 70 119"
1_69_122                                  Continuous HEAD                  All times    "2 70 123"
1_70_73                                   Continuous HEAD                  All times    "2 71 74"
1_70_77                                   Continuous HEAD                  All times    "2 71 78"
1_70_78                                   Continuous HEAD                  All times    "2 71 79"
1_70_79                                   Continuous HEAD                  All times    "2 71 80"
1_70_81                                   Continuous HEAD                  All times    "2 71 82"
1_70_85                                   Continuous HEAD                  All times    "2 71 86"
1_70_86                                   Continuous HEAD                  All times    "2 71 87"
1_70_91                                   Continuous HEAD                  All times    "2 71 92"
1_70_94                                   Continuous HEAD                  All times    "2 71 95"
1_70_97                                   Continuous HEAD                  All times    "2 71 98"
1_70_102                                  Continuous HEAD                  All times    "2 71 103"
1_70_106                                  Continuous HEAD                  All times    "2 71 107"
1_70_110                                  Continuous HEAD                  All times    "2 71 111"
1_70_111                                  Continuous HEAD                  All times    "2 71 112"
1_70_116                                  Continuous HEAD                  All times    "2 71 117"
1_70_120                                  Continuous HEAD                  All times    "2 71 121"
1_70_121                                  Continuous HEAD                  All times    "2 71 122"
1_70_124                                  Continuous HEAD                  All times    "2 71 125"
1_70_125                                  Continuous HEAD                  All times    "2 71 126"
1_70_127                                  Continuous HEAD                  All times    "2 71 128"
1_71_74                                   Continuous HEAD                  All times    "2 72 75"
1_71_83                                   Continuous HEAD                  All times    "2 72 84"
1_71_86                                   Continuous HEAD                  All times    "2 72 87"
1_71_91                                   Continuous HEAD                  All times    "2 72 92"
1_71_100                                  Continuous HEAD                  All times    "2 72 101"
1_71_103                                  Continuous HEAD                  All times    "2 72 104"
1_71_112                                  Continuous HEAD                  All times    "2 72 113"
1_71_116                                  Continuous HEAD                  All times    "2 72 117"
1_71_117                                  Continuous HEAD                  All times    "2 72 118"
1_71_119                                  Continuous HEAD                  All times    "2 72 120"
1_71_123                                  Continuous HEAD                  All times    "2 72 124"
1_71_125                                  Continuous HEAD                  All times    "2 72 126"
1_72_77                                   Continuous HEAD                  All times    "2 73 78"
1_72_79                                   Continuous HEAD                  All times    "2 73 80"
1_72_81                                   Continuous HEAD                  All times    "2 73 82"
1_72_86                                   Continuous HEAD                  All times    "2 73 87"
1_72_87                                   Continuous HEAD                  All times    "2 73 88"
1_72_91                                   Continuous HEAD                  All times    "2 73 92"
1_72_92                                   Continuous HEAD                  All times    "2 73 93"
1_72_111                                  Continuous HEAD                  All times    "2 73 112"
1_72_114                                  Continuous HEAD                  All times    "2 73 115"
1_72_117                                  Continuous HEAD                  All times    "2 73 118"
1_72_119                                  Continuous HEAD                  All times    "2 73 120"
1_72_120                                  Continuous HEAD                  All times    "2 73 121"
1_72_121                                  Continuous HEAD                  All times    "2 73 122"
1_72_123                                  Continuous HEAD                  All times    "2 73 124"
1_72_124                                  Continuous HEAD                  All times    "2 73 125"
1_73_85                                   Continuous HEAD                  All times    "2 74 86"
1_73_87                                   Continuous HEAD                  All times    "2 74 88"
1_73_98                                   Continuous HEAD                  All times    "2 74 99"
1_73_103                                  Continuous HEAD                  All times    "2 74 104"
1_73_105                                  Continuous HEAD                  All times    "2 74 106"
1_73_107                                  Continuous HEAD                  All times    "2 74 108"
1_73_108                                  Continuous HEAD                  All times    "2 74 109"
1_73_110                                  Continuous HEAD                  All times    "2 74 111"
1_73_112                                  Continuous HEAD                  All times    "2 74 113"
1_73_115                                  Continuous HEAD                  All times    "2 74 116"
1_73_116                                  Continuous HEAD                  All times    "2 74 117"
1_74_77                                   Continuous HEAD                  All times    "2 75 78"
1_74_80                                   Continuous HEAD                  All times    "2 75 81"
1_74_84                                   Continuous HEAD                  All times    "2 75 85"
1_74_86                                   Continuous HEAD                  All times    "2 75 87"
1_74_88                                   Continuous HEAD                  All times    "2 75 89"
1_74_96                                   Continuous HEAD                  All times    "2 75 97"
1_74_100                                  Continuous HEAD                  All times    "2 75 101"
1_74_102                                  Continuous HEAD                  All times    "2 75 103"
1_74_103                                  Continuous HEAD                  All times    "2 75 104"
1_74_104                                  Continuous HEAD                  All times    "2 75 105"
1_74_111                                  Continuous HEAD                  All times    "2 75 112"
1_74_114                                  Continuous HEAD                  All times    "2 75 115"
1_74_117                                  Continuous HEAD                  All times    "2 75 118"
1_74_118                                  Continuous HEAD                  All times    "2 75 119"
1_74_119                                  Continuous HEAD                  All times    "2 75 120"
1_74_124                                  Continuous HEAD                  All times    "2 75 125"
1_74_125                                  Continuous HEAD                  All times    "2 75 126"
1_74_126                                  Continuous HEAD                  All times    "2 75 127"
1_75_80                                   Continuous HEAD                  All times    "2 76 81"
1_75_81                                   Continuous HEAD                  All times    "2 76 82"
1_75_85                                   Continuous HEAD                  All times    "2 76 86"
1_75_86                                   Continuous HEAD                  All times    "2 76 87"
1_75_87                                   Continuous HEAD                  All times    "2 76 88"
1_75_89                                   Continuous HEAD                  All times    "2 76 90"
1_75_90                                   Continuous HEAD                  All times    "2 76 91"
1_75_93                                   Continuous HEAD                  All times    "2 76 94"
1_75_94                                   Continuous HEAD                  All times    "2 76 95"
1_75_95                                   Continuous HEAD                  All times    "2 76 96"
1_75_96                                   Continuous HEAD                  All times    "2 76 97"
1_75_99                                   Continuous HEAD                  All times    "2 76 100"
1_75_100                                  Continuous HEAD                  All times    "2 76 101"
1_75_108                                  Continuous HEAD                  All times    "2 76 109"
1_75_110                                  Continuous HEAD                  All times    "2 76 111"
1_75_112                                  Continuous HEAD                  All times    "2 76 113"
1_75_113                                  Continuous HEAD                  All times    "2 76 114"
1_75_116                                  Continuous HEAD                  All times    "2 76 117"
1_75_118                                  Continuous HEAD                  All times    "2 76 119"
1_75_121                                  Continuous HEAD                  All times    "2 76 122"
1_75_126                                  Continuous HEAD                  All times    "2 76 127"
1_76_82                                   Continuous HEAD                  All times    "2 77 83"
1_76_83                                   Continuous HEAD                  All times    "2 77 84"
1_76_86                                   Continuous HEAD                  All times    "2 77 87"
1_76_88                                   Continuous HEAD                  All times    "2 77 89"
1_76_89                                   Continuous HEAD                  All times    "2 77 90"
1_76_90                                   Continuous HEAD                  All times    "2 77 91"
1_76_91                                   Continuous HEAD                  All times    "2 77 92"
1_76_97                                   Continuous HEAD                  All times    "2 77 98"
1_76_99                                   Continuous HEAD                  All times    "2 77 100"
1_76_103                                  Continuous HEAD                  All times    "2 77 104"
1_76_104                                  Continuous HEAD                  All times    "2 77 105"
1_76_106                                  Continuous HEAD                  All times    "2 77 107"
1_76_108                                  Continuous HEAD                  All times    "2 77 109"
1_76_110                                  Continuous HEAD                  All times    "2 77 111"
1_76_114                                  Continuous HEAD                  All times    "2 77 115"
1_76_117                                  Continuous HEAD                  All times    "2 77 118"
1_77_89                                   Continuous HEAD                  All times    "2 78 90"
1_77_90                                   Continuous HEAD                  All times    "2 78 91"
1_77_94                                   Continuous HEAD                  All times    "2 78 95"
1_77_108                                  Continuous HEAD                  All times    "2 78 109"
1_77_113                                  Continuous HEAD                  All times    "2 78 114"
1_77_115                                  Continuous HEAD                  All times    "2 78 116"
1_77_118                                  Continuous HEAD                  All times    "2 78 119"
1_77_119                                  Continuous HEAD                  All times    "2 78 120"
1_77_121                                  Continuous HEAD                  All times    "2 78 122"
1_78_90                                   Continuous HEAD                  All times    "2 79 91"
1_78_93                                   Continuous HEAD                  All times    "2 79 94"
1_78_95                                   Continuous HEAD                  All times    "2 79 96"
1_78_107                                  Continuous HEAD                  All times    "2 79 108"
1_78_111                                  Continuous HEAD                  All times    "2 79 112"
1_78_119                                  Continuous HEAD                  All times    "2 79 120"
1_79_92                                   Continuous HEAD                  All times    "2 80 93"
1_79_97                                   Continuous HEAD                  All times    "2 80 98"
1_79_98                                   Continuous HEAD                  All times    "2 80 99"
1_79_104                                  Continuous HEAD                  All times    "2 80 105"
1_79_106                                  Continuous HEAD                  All times    "2 80 107"
1_79_115                                  Continuous HEAD                  All times    "2 80 116"
1_79_121                                  Continuous HEAD                  All times    "2 80 122"
1_80_101                                  Continuous HEAD                  All times    "2 81 102"
1_80_111                                  Continuous HEAD                  All times    "2 81 112"
1_80_113                                  Continuous HEAD                  All times    "2 81 114"
1_80_117                                  Continuous HEAD                  All times    "2 81 118"
1_80_120                                  Continuous HEAD                  All times    "2 81 121"
1_80_123                                  Continuous HEAD                  All times    "2 81 124"
1_81_105                                  Continuous HEAD                  All times    "2 82 106"
1_81_109                                  Continuous HEAD                  All times    "2 82 110"
1_81_116                                  Continuous HEAD                  All times    "2 82 117"
1_81_118                                  Continuous HEAD                  All times    "2 82 119"
1_81_123                                  Continuous HEAD                  All times    "2 82 124"
1_82_91                                   Continuous HEAD                  All times    "2 83 92"
1_82_94                                   Continuous HEAD                  All times    "2 83 95"
1_82_102                                  Continuous HEAD                  All times    "2 83 103"
1_82_105                                  Continuous HEAD                  All times    "2 83 106"
1_82_106                                  Continuous HEAD                  All times    "2 83 107"
1_82_113                                  Continuous HEAD                  All times    "2 83 114"
1_82_121                                  Continuous HEAD                  All times    "2 83 122"
1_83_89                                   Continuous HEAD                  All times    "2 84 90"
1_83_91                                   Continuous HEAD                  All times    "2 84 92"
1_83_92                                   Continuous HEAD                  All times    "2 84 93"
1_83_95                                   Continuous HEAD                  All times    "2 84 96"
1_83_100                                  Continuous HEAD                  All times    "2 84 101"
1_83_103                                  Continuous HEAD                  All times    "2 84 104"
1_83_108                                  Continuous HEAD                  All times    "2 84 109"
1_83_115                                  Continuous HEAD                  All times    "2 84 116"
1_83_117                                  Continuous HEAD                  All times    "2 84 118"
1_83_125                                  Continuous HEAD                  All times    "2 84 126"
1_84_94                                   Continuous HEAD                  All times    "2 85 95"
1_84_99                                   Continuous HEAD                  All times    "2 85 100"
1_84_102                                  Continuous HEAD                  All times    "2 85 103"
1_84_108                                  Continuous HEAD                  All times    "2 85 109"
1_84_109                                  Continuous HEAD                  All times    "2 85 110"
1_84_111                                  Continuous HEAD                  All times    "2 85 112"
1_84_119                                  Continuous HEAD                  All times    "2 85 120"
1_85_88                                   Continuous HEAD                  All times    "2 86 89"
1_85_95                                   Continuous HEAD                  All times    "2 86 96"
1_85_100                                  Continuous HEAD                  All times    "2 86 101"
1_85_101                                  Continuous HEAD                  All times    "2 86 102"
1_85_107                                  Continuous HEAD                  All times    "2 86 108"
1_85_111                                  Continuous HEAD                  All times    "2 86 112"
1_85_113                                  Continuous HEAD                  All times    "2 86 114"
1_85_115                                  Continuous HEAD                  All times    "2 86 116"
1_85_116                                  Continuous HEAD                  All times    "2 86 117"
1_85_118                                  Continuous HEAD                  All times    "2 86 119"
1_85_120                                  Continuous HEAD                  All times    "2 86 121"
1_85_121                                  Continuous HEAD                  All times    "2 86 122"
1_85_125                                  Continuous HEAD                  All times    "2 86 126"
1_85_127                                  Continuous HEAD                  All times    "2 86 128"
1_86_92                                   Continuous HEAD                  All times    "2 87 93"
1_86_96                                   Continuous HEAD                  All times    "2 87 97"
1_86_101                                  Continuous HEAD                  All times    "2 87 102"
1_86_105                                  Continuous HEAD                  All times    "2 87 106"
1_86_109                                  Continuous HEAD                  All times    "2 87 110"
1_86_123                                  Continuous HEAD                  All times    "2 87 124"
1_86_124                                  Continuous HEAD                  All times    "2 87 125"
1_87_94                                   Continuous HEAD                  All times    "2 88 95"
1_87_98                                   Continuous HEAD                  All times    "2 88 99"
1_87_110                                  Continuous HEAD                  All times    "2 88 111"
1_87_113                                  Continuous HEAD                  All times    "2 88 114"
1_87_115                                  Continuous HEAD                  All times    "2 88 116"
1_87_119                                  Continuous HEAD                  All times    "2 88 120"
1_87_120                                  Continuous HEAD                  All times    "2 88 121"
1_87_127                                  Continuous HEAD                  All times    "2 88 128"
1_88_107                                  Continuous HEAD                  All times    "2 89 108"
1_88_109                                  Continuous HEAD                  All times    "2 89 110"
1_88_120                                  Continuous HEAD                  All times    "2 89 121"
1_88_123                                  Continuous HEAD                  All times    "2 89 124"
1_88_124                                  Continuous HEAD                  All times    "2 89 125"
1_89_110                                  Continuous HEAD                  All times    "2 90 111"
1_89_111                                  Continuous HEAD                  All times    "2 90 112"
1_89_115                                  Continuous HEAD                  All times    "2 90 116"
1_89_118                                  Continuous HEAD                  All times    "2 90 119"
1_89_121                                  Continuous HEAD                  All times    "2 90 122"
1_89_123                                  Continuous HEAD                  All times    "2 90 124"
1_90_90                                   Continuous HEAD                  All times    "2 91 91"
1_90_94                                   Continuous HEAD                  All times    "2 91 95"
1_90_99                                   Continuous HEAD                  All times    "2 91 100"
1_90_104                                  Continuous HEAD                  All times    "2 91 105"
1_90_105                                  Continuous HEAD                  All times    "2 91 106"
1_90_107                                  Continuous HEAD                  All times    "2 91 108"
1_90_109                                  Continuous HEAD                  All times    "2 91 110"
1_90_117                                  Continuous HEAD                  All times    "2 91 118"
1_90_121                                  Continuous HEAD                  All times    "2 91 122"
1_90_124                                  Continuous HEAD                  All times    "2 91 125"
1_90_125                                  Continuous HEAD                  All times    "2 91 126"
1_90_126                                  Continuous HEAD                  All times    "2 91 127"
1_91_100                                  Continuous HEAD                  All times    "2 92 101"
1_91_112                                  Continuous HEAD                  All times    "2 92 113"
1_91_114                                  Continuous HEAD                  All times    "2 92 115"
1_91_116                                  Continuous HEAD                  All times    "2 92 117"
1_91_118                                  Continuous HEAD                  All times    "2 92 119"
1_91_122                                  Continuous HEAD                  All times    "2 92 123"
1_92_109                                  Continuous HEAD                  All times    "2 93 110"
1_92_110                                  Continuous HEAD                  All times    "2 93 111"
1_92_114                                  Continuous HEAD                  All times    "2 93 115"
1_92_126                                  Continuous HEAD                  All times    "2 93 127"
1_93_99                                   Continuous HEAD                  All times    "2 94 100"
1_93_103                                  Continuous HEAD                  All times    "2 94 104"
1_93_113                                  Continuous HEAD                  All times    "2 94 114"
1_93_117                                  Continuous HEAD                  All times    "2 94 118"
1_93_119                                  Continuous HEAD                  All times    "2 94 120"
1_93_122                                  Continuous HEAD                  All times    "2 94 123"
1_94_112                                  Continuous HEAD                  All times    "2 95 113"
1_94_125                                  Continuous HEAD                  All times    "2 95 126"
1_95_74                                   Continuous HEAD                  All times    "2 96 75"
1_95_80                                   Continuous HEAD                  All times    "2 96 81"
1_95_118                                  Continuous HEAD                  All times    "2 96 119"
1_95_125                                  Continuous HEAD                  All times    "2 96 126"
1_95_127                                  Continuous HEAD                  All times    "2 96 128"
1_96_65                                   Continuous HEAD                  All times    "2 97 66"
1_96_66                                   Continuous HEAD                  All times    "2 97 67"
1_96_76                                   Continuous HEAD                  All times    "2 97 77"
1_97_67                                   Continuous HEAD                  All times    "2 98 68"
1_98_67                                   Continuous HEAD                  All times    "2 99 68"
1_98_95                                   Continuous HEAD                  All times    "2 99 96"
1_99_89                                   Continuous HEAD                  All times    "2 100 90"
1_100_53                                  Continuous HEAD                  All times    "2 101 54"
1_100_76                                  Continuous HEAD                  All times    "2 101 77"
1_101_56                                  Continuous HEAD                  All times    "2 102 57"
1_101_76                                  Continuous HEAD                  All times    "2 102 77"
1_102_73                                  Continuous HEAD                  All times    "2 103 74"
1_102_75                                  Continuous HEAD                  All times    "2 103 76"
1_102_78                                  Continuous HEAD                  All times    "2 103 79"
1_102_79                                  Continuous HEAD                  All times    "2 103 80"
1_103_71                                  Continuous HEAD                  All times    "2 104 72"
1_103_77                                  Continuous HEAD                  All times    "2 104 78"
1_103_83                                  Continuous HEAD                  All times    "2 104 84"
1_103_85                                  Continuous HEAD                  All times    "2 104 86"
1_104_48                                  Continuous HEAD                  All times    "2 105 49"
1_104_68                                  Continuous HEAD                  All times    "2 105 69"
1_104_81                                  Continuous HEAD                  All times    "2 105 82"
1_104_84                                  Continuous HEAD                  All times    "2 105 85"
1_105_52                                  Continuous HEAD                  All times    "2 106 53"
1_105_58                                  Continuous HEAD                  All times    "2 106 59"
1_105_72                                  Continuous HEAD                  All times    "2 106 73"
1_105_76                                  Continuous HEAD                  All times    "2 106 77"
1_105_79                                  Continuous HEAD                  All times    "2 106 80"
1_106_45                                  Continuous HEAD                  All times    "2 107 46"
1_106_52                                  Continuous HEAD                  All times    "2 107 53"
1_106_57                                  Continuous HEAD                  All times    "2 107 58"
1_106_59                                  Continuous HEAD                  All times    "2 107 60"
1_106_60                                  Continuous HEAD                  All times    "2 107 61"
1_106_69                                  Continuous HEAD                  All times    "2 107 70"
1_106_71                                  Continuous HEAD                  All times    "2 107 72"
1_107_47                                  Continuous HEAD                  All times    "2 108 48"
1_107_54                                  Continuous HEAD                  All times    "2 108 55"
1_107_57                                  Continuous HEAD                  All times    "2 108 58"
1_107_74                                  Continuous HEAD                  All times    "2 108 75"
1_107_79                                  Continuous HEAD                  All times    "2 108 80"
1_108_42                                  Continuous HEAD                  All times    "2 109 43"
1_108_72                                  Continuous HEAD                  All times    "2 109 73"
1_109_46                                  Continuous HEAD                  All times    "2 110 47"
1_109_49                                  Continuous HEAD                  All times    "2 110 50"
1_109_54                                  Continuous HEAD                  All times    "2 110 55"
1_109_56                                  Continuous HEAD                  All times    "2 110 57"
1_109_58                                  Continuous HEAD                  All times    "2 110 59"
1_109_63                                  Continuous HEAD                  All times    "2 110 64"
1_109_75                                  Continuous HEAD                  All times    "2 110 76"
1_109_78                                  Continuous HEAD                  All times    "2 110 79"
1_109_114                                 Continuous HEAD                  All times    "2 110 115"
1_110_99                                  Continuous HEAD                  All times    "2 111 100"
1_110_105                                 Continuous HEAD                  All times    "2 111 106"
1_110_106                                 Continuous HEAD                  All times    "2 111 107"
1_111_56                                  Continuous HEAD                  All times    "2 112 57"
1_111_66                                  Continuous HEAD                  All times    "2 112 67"
1_111_72                                  Continuous HEAD                  All times    "2 112 73"
1_111_118                                 Continuous HEAD                  All times    "2 112 119"
1_112_46                                  Continuous HEAD                  All times    "2 113 47"
1_112_52                                  Continuous HEAD                  All times    "2 113 53"
1_112_66                                  Continuous HEAD                  All times    "2 113 67"
1_112_98                                  Continuous HEAD                  All times    "2 113 99"
1_112_102                                 Continuous HEAD                  All times    "2 113 103"
1_112_109                                 Continuous HEAD                  All times    "2 113 110"
1_113_61                                  Continuous HEAD                  All times    "2 114 62"
1_113_71                                  Continuous HEAD                  All times    "2 114 72"
1_113_111                                 Continuous HEAD                  All times    "2 114 112"
1_114_62                                  Continuous HEAD                  All times    "2 115 63"
1_114_67                                  Continuous HEAD                  All times    "2 115 68"
1_114_71                                  Continuous HEAD                  All times    "2 115 72"
1_114_72                                  Continuous HEAD                  All times    "2 115 73"
1_115_48                                  Continuous HEAD                  All times    "2 116 49"
1_115_52                                  Continuous HEAD                  All times    "2 116 53"
1_115_58                                  Continuous HEAD                  All times    "2 116 59"
1_115_64                                  Continuous HEAD                  All times    "2 116 65"
1_115_67                                  Continuous HEAD                  All times    "2 116 68"
1_115_95                                  Continuous HEAD                  All times    "2 116 96"
1_115_106                                 Continuous HEAD                  All times    "2 116 107"
1_115_112                                 Continuous HEAD                  All times    "2 116 113"
1_115_115                                 Continuous HEAD                  All times    "2 116 116"
1_116_60                                  Continuous HEAD                  All times    "2 117 61"
1_116_62                                  Continuous HEAD                  All times    "2 117 63"
1_116_64                                  Continuous HEAD                  All times    "2 117 65"
1_116_70                                  Continuous HEAD                  All times    "2 117 71"
1_116_98                                  Continuous HEAD                  All times    "2 117 99"
1_116_102                                 Continuous HEAD                  All times    "2 117 103"
1_116_104                                 Continuous HEAD                  All times    "2 117 105"
1_117_56                                  Continuous HEAD                  All times    "2 118 57"
1_117_62                                  Continuous HEAD                  All times    "2 118 63"
1_117_101                                 Continuous HEAD                  All times    "2 118 102"
1_117_109                                 Continuous HEAD                  All times    "2 118 110"
1_118_86                                  Continuous HEAD                  All times    "2 119 87"
1_118_91                                  Continuous HEAD                  All times    "2 119 92"
1_118_105                                 Continuous HEAD                  All times    "2 119 106"
1_119_47                                  Continuous HEAD                  All times    "2 120 48"
1_119_55                                  Continuous HEAD                  All times    "2 120 56"
1_119_58                                  Continuous HEAD                  All times    "2 120 59"
1_119_88                                  Continuous HEAD                  All times    "2 120 89"
1_119_109                                 Continuous HEAD                  All times    "2 120 110"
1_119_127                                 Continuous HEAD                  All times    "2 120 128"
1_120_50                                  Continuous HEAD                  All times    "2 121 51"
1_120_103                                 Continuous HEAD                  All times    "2 121 104"
1_120_112                                 Continuous HEAD                  All times    "2 121 113"
1_120_120                                 Continuous HEAD                  All times    "2 121 121"
1_121_58                                  Continuous HEAD                  All times    "2 122 59"
1_121_101                                 Continuous HEAD                  All times    "2 122 102"
1_121_104                                 Continuous HEAD                  All times    "2 122 105"
1_121_107                                 Continuous HEAD                  All times    "2 122 108"
1_121_117                                 Continuous HEAD                  All times    "2 122 118"
1_121_127                                 Continuous HEAD                  All times    "2 122 128"
1_122_53                                  Continuous HEAD                  All times    "2 123 54"
1_122_62                                  Continuous HEAD                  All times    "2 123 63"
1_122_63                                  Continuous HEAD                  All times    "2 123 64"
1_122_84                                  Continuous HEAD                  All times    "2 123 85"
1_122_121                                 Continuous HEAD                  All times    "2 123 122"
1_123_59                                  Continuous HEAD                  All times    "2 124 60"
1_123_103                                 Continuous HEAD                  All times    "2 124 104"
1_123_105                                 Continuous HEAD                  All times    "2 124 106"
1_123_108                                 Continuous HEAD                  All times    "2 124 109"
1_123_112                                 Continuous HEAD                  All times    "2 124 113"
1_123_127                                 Continuous HEAD                  All times    "2 124 128"
1_124_60                                  Continuous HEAD                  All times    "2 125 61"
1_124_61                                  Continuous HEAD                  All times    "2 125 62"
1_124_62                                  Continuous HEAD                  All times    "2 125 63"
1_124_100                                 Continuous HEAD                  All times    "2 125 101"
1_124_116                                 Continuous HEAD                  All times    "2 125 117"
1_125_57                                  Continuous HEAD                  All times    "2 126 58"
1_125_60                                  Continuous HEAD                  All times    "2 126 61"
1_125_103                                 Continuous HEAD                  All times    "2 126 104"
1_126_106                                 Continuous HEAD                  All times    "2 127 107"
1_127_56                                  Continuous HEAD                  All times    "2 128 57"
1_128_105                                 Continuous HEAD                  All times    "2 129 106"
1_128_120                                 Continuous HEAD                  All times    "2 129 121"
1_129_110                                 Continuous HEAD                  All times    "2 130 111"
1_129_113                                 Continuous HEAD                  All times    "2 130 114"
1_129_127                                 Continuous HEAD                  All times    "2 130 128"
1_130_106                                 Continuous HEAD                  All times    "2 131 107"
1_131_65                                  Continuous HEAD                  All times    "2 132 66"
1_132_105                                 Continuous HEAD                  All times    "2 133 106"
1_133_79                                  Continuous HEAD                  All times    "2 134 80"
1_134_55                                  Continuous HEAD                  All times    "2 135 56"
1_134_57                                  Continuous HEAD                  All times    "2 135 58"
1_134_106                                 Continuous HEAD                  All times    "2 135 107"
1_134_118                                 Continuous HEAD                  All times    "2 135 119"
1_134_121                                 Continuous HEAD                  All times    "2 135 122"
1_135_113                                 Continuous HEAD                  All times    "2 136 114"
1_135_115                                 Continuous HEAD                  All times    "2 136 116"
1_136_114                                 Continuous HEAD                  All times    "2 137 115"
1_137_109                                 Continuous HEAD                  All times    "2 138 110"
1_137_124                                 Continuous HEAD                  All times    "2 138 125"
1_137_126                                 Continuous HEAD                  All times    "2 138 127"
1_138_117                                 Continuous HEAD                  All times    "2 139 118"
1_138_118                                 Continuous HEAD                  All times    "2 139 119"
1_141_114                                 Continuous HEAD                  All times    "2 142 115"
1_142_110                                 Continuous HEAD                  All times    "2 143 111"
1_142_116                                 Continuous HEAD                  All times    "2 143 117"
1_143_108                                 Continuous HEAD                  All times    "2 144 109"
1_143_111                                 Continuous HEAD                  All times    "2 144 112"
1_143_121                                 Continuous HEAD                  All times    "2 144 122"
1_143_127                                 Continuous HEAD                  All times    "2 144 128"
1_144_105                                 Continuous HEAD                  All times    "2 145 106"
1_144_107                                 Continuous HEAD                  All times    "2 145 108"
1_144_109                                 Continuous HEAD                  All times    "2 145 110"
1_144_116                                 Continuous HEAD                  All times    "2 145 117"
1_144_127                                 Continuous HEAD                  All times    "2 145 128"
1_145_106                                 Continuous HEAD                  All times    "2 146 107"
1_145_107                                 Continuous HEAD                  All times    "2 146 108"
1_145_117                                 Continuous HEAD                  All times    "2 146 118"
1_146_102                                 Continuous HEAD                  All times    "2 147 103"
1_146_103                                 Continuous HEAD                  All times    "2 147 104"
1_146_105                                 Continuous HEAD                  All times    "2 147 106"
1_146_111                                 Continuous HEAD                  All times    "2 147 112"
1_147_91                                  Continuous HEAD                  All times    "2 148 92"
1_147_109                                 Continuous HEAD                  All times    "2 148 110"
1_147_111                                 Continuous HEAD                  All times    "2 148 112"
1_147_113                                 Continuous HEAD                  All times    "2 148 114"
1_147_115                                 Continuous HEAD                  All times    "2 148 116"
1_147_119                                 Continuous HEAD                  All times    "2 148 120"
1_148_98                                  Continuous HEAD                  All times    "2 149 99"
1_148_115                                 Continuous HEAD                  All times    "2 149 116"
1_148_119                                 Continuous HEAD                  All times    "2 149 120"
1_149_91                                  Continuous HEAD                  All times    "2 150 92"
1_149_100                                 Continuous HEAD                  All times    "2 150 101"
1_149_104                                 Continuous HEAD                  All times    "2 150 105"
1_149_108                                 Continuous HEAD                  All times    "2 150 109"
1_150_87                                  Continuous HEAD                  All times    "2 151 88"
1_150_98                                  Continuous HEAD                  All times    "2 151 99"
1_150_110                                 Continuous HEAD                  All times    "2 151 111"
1_150_129                                 Continuous HEAD                  All times    "2 151 130"
1_151_95                                  Continuous HEAD                  All times    "2 152 96"
1_151_104                                 Continuous HEAD                  All times    "2 152 105"
1_151_105                                 Continuous HEAD                  All times    "2 152 106"
1_151_111                                 Continuous HEAD                  All times    "2 152 112"
1_151_122                                 Continuous HEAD                  All times    "2 152 123"
1_152_94                                  Continuous HEAD                  All times    "2 153 95"
1_152_95                                  Continuous HEAD                  All times    "2 153 96"
1_152_110                                 Continuous HEAD                  All times    "2 153 111"
1_152_125                                 Continuous HEAD                  All times    "2 153 126"
1_153_111                                 Continuous HEAD                  All times    "2 154 112"
1_154_79                                  Continuous HEAD                  All times    "2 155 80"
1_154_108                                 Continuous HEAD                  All times    "2 155 109"
1_154_110                                 Continuous HEAD                  All times    "2 155 111"
1_154_120                                 Continuous HEAD                  All times    "2 155 121"
1_154_124                                 Continuous HEAD                  All times    "2 155 125"
1_154_129                                 Continuous HEAD                  All times    "2 155 130"
1_155_110                                 Continuous HEAD                  All times    "2 156 111"
1_156_78                                  Continuous HEAD                  All times    "2 157 79"
1_156_87                                  Continuous HEAD                  All times    "2 157 88"
1_156_94                                  Continuous HEAD                  All times    "2 157 95"
1_156_96                                  Continuous HEAD                  All times    "2 157 97"
1_156_121                                 Continuous HEAD                  All times    "2 157 122"
1_156_123                                 Continuous HEAD                  All times    "2 157 124"
1_156_125                                 Continuous HEAD                  All times    "2 157 126"
1_156_129                                 Continuous HEAD                  All times    "2 157 130"
1_157_75                                  Continuous HEAD                  All times    "2 158 76"
1_157_76                                  Continuous HEAD                  All times    "2 158 77"
1_157_79                                  Continuous HEAD                  All times    "2 158 80"
1_157_122                                 Continuous HEAD                  All times    "2 158 123"
1_157_124                                 Continuous HEAD                  All times    "2 158 125"
1_158_75                                  Continuous HEAD                  All times    "2 159 76"
1_158_82                                  Continuous HEAD                  All times    "2 159 83"
1_158_83                                  Continuous HEAD                  All times    "2 159 84"
1_158_101                                 Continuous HEAD                  All times    "2 159 102"
1_158_124                                 Continuous HEAD                  All times    "2 159 125"
1_158_131                                 Continuous HEAD                  All times    "2 159 132"
1_159_90                                  Continuous HEAD                  All times    "2 160 91"
1_160_73                                  Continuous HEAD                  All times    "2 161 74"
1_160_82                                  Continuous HEAD                  All times    "2 161 83"
1_160_97                                  Continuous HEAD                  All times    "2 161 98"
1_160_100                                 Continuous HEAD                  All times    "2 161 101"
1_160_112                                 Continuous HEAD                  All times    "2 161 113"
1_161_100                                 Continuous HEAD                  All times    "2 162 101"
1_161_104                                 Continuous HEAD                  All times    "2 162 105"
1_161_106                                 Continuous HEAD                  All times    "2 162 107"
1_162_71                                  Continuous HEAD                  All times    "2 163 72"
1_162_90                                  Continuous HEAD                  All times    "2 163 91"
1_162_100                                 Continuous HEAD                  All times    "2 163 101"
1_162_106                                 Continuous HEAD                  All times    "2 163 107"
1_163_71                                  Continuous HEAD                  All times    "2 164 72"
1_163_96                                  Continuous HEAD                  All times    "2 164 97"
1_163_105                                 Continuous HEAD                  All times    "2 164 106"
1_164_66                                  Continuous HEAD                  All times    "2 165 67"
1_164_68                                  Continuous HEAD                  All times    "2 165 69"
1_164_102                                 Continuous HEAD                  All times    "2 165 103"
1_164_103                                 Continuous HEAD                  All times    "2 165 104"
1_165_63                                  Continuous HEAD                  All times    "2 166 64"
1_165_100                                 Continuous HEAD                  All times    "2 166 101"
1_166_64                                  Continuous HEAD                  All times    "2 167 65"
1_167_58                                  Continuous HEAD                  All times    "2 168 59"
1_167_59                                  Continuous HEAD                  All times    "2 168 60"
1_167_60                                  Continuous HEAD                  All times    "2 168 61"
1_169_54                                  Continuous HEAD                  All times    "2 170 55"
1_169_56                                  Continuous HEAD                  All times    "2 170 57"
1_170_53                                  Continuous HEAD                  All times    "2 171 54"
1_171_49                                  Continuous HEAD                  All times    "2 172 50"
1_171_53                                  Continuous HEAD                  All times    "2 172 54"
1_171_54                                  Continuous HEAD                  All times    "2 172 55"
1_171_66                                  Continuous HEAD                  All times    "2 172 67"
1_172_50                                  Continuous HEAD                  All times    "2 173 51"
1_172_51                                  Continuous HEAD                  All times    "2 173 52"
1_172_53                                  Continuous HEAD                  All times    "2 173 54"
1_172_65                                  Continuous HEAD                  All times    "2 173 66"
1_173_48                                  Continuous HEAD                  All times    "2 174 49"
1_173_49                                  Continuous HEAD                  All times    "2 174 50"
1_173_64                                  Continuous HEAD                  All times    "2 174 65"
1_173_65                                  Continuous HEAD                  All times    "2 174 66"
1_174_53                                  Continuous HEAD                  All times    "2 175 54"
1_174_57                                  Continuous HEAD                  All times    "2 175 58"
1_175_56                                  Continuous HEAD                  All times    "2 176 57"
1_176_53                                  Continuous HEAD                  All times    "2 177 54"
1_177_53                                  Continuous HEAD                  All times    "2 178 54"
1_177_55                                  Continuous HEAD                  All times    "2 178 56"
1_178_53                                  Continuous HEAD                  All times    "2 179 54"
1_178_64                                  Continuous HEAD                  All times    "2 179 65"
3_53_101                                  Continuous HEAD                  All times    "4 54 102"
3_55_97                                   Continuous HEAD                  All times    "4 56 98"
3_60_99                                   Continuous HEAD                  All times    "4 61 100"
3_61_98                                   Continuous HEAD                  All times    "4 62 99"
3_61_101                                  Continuous HEAD                  All times    "4 62 102"
3_63_101                                  Continuous HEAD                  All times    "4 64 102"
3_66_92                                   Continuous HEAD                  All times    "4 67 93"
3_67_76                                   Continuous HEAD                  All times    "4 68 77"
3_67_91                                   Continuous HEAD                  All times    "4 68 92"
3_69_77                                   Continuous HEAD                  All times    "4 70 78"
3_69_80                                   Continuous HEAD                  All times    "4 70 81"
3_69_83                                   Continuous HEAD                  All times    "4 70 84"
3_70_86                                   Continuous HEAD                  All times    "4 71 87"
3_70_103                                  Continuous HEAD                  All times    "4 71 104"
3_71_84                                   Continuous HEAD                  All times    "4 72 85"
3_72_71                                   Continuous HEAD                  All times    "4 73 72"
3_76_78                                   Continuous HEAD                  All times    "4 77 79"
3_78_80                                   Continuous HEAD                  All times    "4 79 81"
3_79_81                                   Continuous HEAD                  All times    "4 80 82"
3_81_96                                   Continuous HEAD                  All times    "4 82 97"
3_85_85                                   Continuous HEAD                  All times    "4 86 86"
3_88_84                                   Continuous HEAD                  All times    "4 89 85"
3_89_79                                   Continuous HEAD                  All times    "4 90 80"
3_94_108                                  Continuous HEAD                  All times    "4 95 109"
3_95_113                                  Continuous HEAD                  All times    "4 96 114"
3_96_82                                   Continuous HEAD                  All times    "4 97 83"
3_96_121                                  Continuous HEAD                  All times    "4 97 122"
3_98_107                                  Continuous HEAD                  All times    "4 99 108"
3_99_98                                   Continuous HEAD                  All times    "4 100 99"
3_99_99                                   Continuous HEAD                  All times    "4 100 100"
3_99_102                                  Continuous HEAD                  All times    "4 100 103"
3_99_104                                  Continuous HEAD                  All times    "4 100 105"
3_99_106                                  Continuous HEAD                  All times    "4 100 107"
3_100_55                                  Continuous HEAD                  All times    "4 101 56"
3_100_89                                  Continuous HEAD                  All times    "4 101 90"
3_100_110                                 Continuous HEAD                  All times    "4 101 111"
3_100_112                                 Continuous HEAD                  All times    "4 101 113"
3_101_108                                 Continuous HEAD                  All times    "4 102 109"
3_102_49                                  Continuous HEAD                  All times    "4 103 50"
3_103_77                                  Continuous HEAD                  All times    "4 104 78"
3_103_88                                  Continuous HEAD                  All times    "4 104 89"
3_103_92                                  Continuous HEAD                  All times    "4 104 93"
3_103_94                                  Continuous HEAD                  All times    "4 104 95"
3_103_124                                 Continuous HEAD                  All times    "4 104 125"
3_104_91                                  Continuous HEAD                  All times    "4 105 92"
3_104_101                                 Continuous HEAD                  All times    "4 105 102"
3_104_112                                 Continuous HEAD                  All times    "4 105 113"
3_105_104                                 Continuous HEAD                  All times    "4 106 105"
3_106_82                                  Continuous HEAD                  All times    "4 107 83"
3_106_88                                  Continuous HEAD                  All times    "4 107 89"
3_106_89                                  Continuous HEAD                  All times    "4 107 90"
3_106_90                                  Continuous HEAD                  All times    "4 107 91"
3_106_100                                 Continuous HEAD                  All times    "4 107 101"
3_106_101                                 Continuous HEAD                  All times    "4 107 102"
3_107_88                                  Continuous HEAD                  All times    "4 108 89"
3_107_97                                  Continuous HEAD                  All times    "4 108 98"
3_107_109                                 Continuous HEAD                  All times    "4 108 110"
3_107_110                                 Continuous HEAD                  All times    "4 108 111"
3_109_95                                  Continuous HEAD                  All times    "4 110 96"
3_111_115                                 Continuous HEAD                  All times    "4 112 116"
3_112_52                                  Continuous HEAD                  All times    "4 113 53"
3_112_81                                  Continuous HEAD                  All times    "4 113 82"
3_113_93                                  Continuous HEAD                  All times    "4 114 94"
3_113_94                                  Continuous HEAD                  All times    "4 114 95"
3_114_92                                  Continuous HEAD                  All times    "4 115 93"
3_115_72                                  Continuous HEAD                  All times    "4 116 73"
3_115_76                                  Continuous HEAD                  All times    "4 116 77"
3_117_79                                  Continuous HEAD                  All times    "4 118 80"
3_118_68                                  Continuous HEAD                  All times    "4 119 69"
3_119_70                                  Continuous HEAD                  All times    "4 120 71"
3_119_81                                  Continuous HEAD                  All times    "4 120 82"
3_120_65                                  Continuous HEAD                  All times    "4 121 66"
3_120_66                                  Continuous HEAD                  All times    "4 121 67"
3_120_70                                  Continuous HEAD                  All times    "4 121 71"
3_120_78                                  Continuous HEAD                  All times    "4 121 79"
3_120_120                                 Continuous HEAD                  All times    "4 121 121"
3_121_68                                  Continuous HEAD                  All times    "4 122 69"
3_121_76                                  Continuous HEAD                  All times    "4 122 77"
3_122_89                                  Continuous HEAD                  All times    "4 123 90"
3_123_77                                  Continuous HEAD                  All times    "4 124 78"
3_123_79                                  Continuous HEAD                  All times    "4 124 80"
3_124_66                                  Continuous HEAD                  All times    "4 125 67"
3_125_60                                  Continuous HEAD                  All times    "4 126 61"
3_125_82                                  Continuous HEAD                  All times    "4 126 83"
3_126_59                                  Continuous HEAD                  All times    "4 127 60"
3_126_65                                  Continuous HEAD                  All times    "4 127 66"
3_126_71                                  Continuous HEAD                  All times    "4 127 72"
3_126_96                                  Continuous HEAD                  All times    "4 127 97"
3_127_59                                  Continuous HEAD                  All times    "4 128 60"
3_127_61                                  Continuous HEAD                  All times    "4 128 62"
3_127_81                                  Continuous HEAD                  All times    "4 128 82"
3_129_76                                  Continuous HEAD                  All times    "4 130 77"
3_129_91                                  Continuous HEAD                  All times    "4 130 92"
3_129_113                                 Continuous HEAD                  All times    "4 130 114"
3_130_61                                  Continuous HEAD                  All times    "4 131 62"
3_131_114                                 Continuous HEAD                  All times    "4 132 115"
3_132_71                                  Continuous HEAD                  All times    "4 133 72"
3_132_97                                  Continuous HEAD                  All times    "4 133 98"
3_132_100                                 Continuous HEAD                  All times    "4 133 101"
3_133_87                                  Continuous HEAD                  All times    "4 134 88"
3_133_126                                 Continuous HEAD                  All times    "4 134 127"
3_134_97                                  Continuous HEAD                  All times    "4 135 98"
3_135_72                                  Continuous HEAD                  All times    "4 136 73"
3_136_62                                  Continuous HEAD                  All times    "4 137 63"
3_136_77                                  Continuous HEAD                  All times    "4 137 78"
3_137_73                                  Continuous HEAD                  All times    "4 138 74"
3_138_75                                  Continuous HEAD                  All times    "4 139 76"
3_140_116                                 Continuous HEAD                  All times    "4 141 117"
3_142_56                                  Continuous HEAD                  All times    "4 143 57"
3_144_101                                 Continuous HEAD                  All times    "4 145 102"
3_145_67                                  Continuous HEAD                  All times    "4 146 68"
3_148_73                                  Continuous HEAD                  All times    "4 149 74"
3_149_71                                  Continuous HEAD                  All times    "4 150 72"
3_152_76                                  Continuous HEAD                  All times    "4 153 77"
3_153_77                                  Continuous HEAD                  All times    "4 154 78"
3_161_53                                  Continuous HEAD                  All times    "4 162 54"
3_162_53                                  Continuous HEAD                  All times    "4 163 54"
3_164_53                                  Continuous HEAD                  All times    "4 165 54"
    BINARY GRID INFORMATION WILL BE WRITTEN TO:
      UNIT NUMBER: 1026
      FILE NAME: C:\Users\emmal\Documents\GitHub\TM_Ludovic_Schorpp\codes_tests\Modeles3D\test_3D\working_2\3D_cartes.dis.grb

 OPENED C:\Users\emmal\Documents\GitHub\TM_Ludovic_Schorpp\codes_tests\Modeles3D\test_3D\working_2\3D_cartes.dis.grb
 FILE TYPE:DATA(BINARY)   UNIT 1026   STATUS:REPLACE             
 FORMAT:UNFORMATTED            ACCESS:STREAM              
 ACTION:READWRITE           

      THE LAST TIME STEP WILL BE PRINTED
      THE LAST TIME STEP WILL BE PRINTED
 PROCESSING OC OPTIONS
    BUDGET INFORMATION WILL BE WRITTEN TO:
      UNIT NUMBER: 1027
      FILE NAME: 3D_cartes.cbc

 OPENED 3D_cartes.cbc
 FILE TYPE:DATA(BINARY)   UNIT 1027   STATUS:REPLACE             
 FORMAT:UNFORMATTED            ACCESS:STREAM              
 ACTION:READWRITE           

    HEAD INFORMATION WILL BE WRITTEN TO:
      UNIT NUMBER: 1028
      FILE NAME: 3D_cartes.hds

 OPENED 3D_cartes.hds
 FILE TYPE:DATA(BINARY)   UNIT 1028   STATUS:REPLACE             
 FORMAT:UNFORMATTED            ACCESS:STREAM              
 ACTION:READWRITE           

 END OF OC OPTIONS

 BEGIN READING OUTPUT CONTROL FOR STRESS PERIOD 1
      THE LAST TIME STEP WILL BE SAVED
      THE LAST TIME STEP WILL BE SAVED
      ALL TIME STEPS WILL BE PRINTED

 END READING OUTPUT CONTROL FOR STRESS PERIOD 1
 UBDSV1 SAVING     FLOW-JA-FACE ON UNIT   1027 AT TIME STEP      1, STRESS PERIOD      1
 UBDSV06 SAVING              WEL IN MODEL 3D_CARTES        PACKAGE 3D_CARTES       CONNECTED TO MODEL 3D_CARTES        PACKAGE WEL              ON UNIT   1027 AT TIME STEP      1, STRESS PERIOD      1
 UBDSV06 SAVING              WEL IN MODEL 3D_CARTES        PACKAGE 3D_CARTES       CONNECTED TO MODEL 3D_CARTES        PACKAGE CORB             ON UNIT   1027 AT TIME STEP      1, STRESS PERIOD      1
 UBDSV06 SAVING              DRN IN MODEL 3D_CARTES        PACKAGE 3D_CARTES       CONNECTED TO MODEL 3D_CARTES        PACKAGE ETA              ON UNIT   1027 AT TIME STEP      1, STRESS PERIOD      1
 UBDSV06 SAVING              RIV IN MODEL 3D_CARTES        PACKAGE 3D_CARTES       CONNECTED TO MODEL 3D_CARTES        PACKAGE AGLY             ON UNIT   1027 AT TIME STEP      1, STRESS PERIOD      1
 UBDSV06 SAVING              RIV IN MODEL 3D_CARTES        PACKAGE 3D_CARTES       CONNECTED TO MODEL 3D_CARTES        PACKAGE TET              ON UNIT   1027 AT TIME STEP      1, STRESS PERIOD      1
 UBDSV06 SAVING              RIV IN MODEL 3D_CARTES        PACKAGE 3D_CARTES       CONNECTED TO MODEL 3D_CARTES        PACKAGE REA              ON UNIT   1027 AT TIME STEP      1, STRESS PERIOD      1
 UBDSV06 SAVING              RIV IN MODEL 3D_CARTES        PACKAGE 3D_CARTES       CONNECTED TO MODEL 3D_CARTES        PACKAGE CANT             ON UNIT   1027 AT TIME STEP      1, STRESS PERIOD      1
 UBDSV06 SAVING              RIV IN MODEL 3D_CARTES        PACKAGE 3D_CARTES       CONNECTED TO MODEL 3D_CARTES        PACKAGE TECH             ON UNIT   1027 AT TIME STEP      1, STRESS PERIOD      1
 UBDSV06 SAVING              RIV IN MODEL 3D_CARTES        PACKAGE 3D_CARTES       CONNECTED TO MODEL 3D_CARTES        PACKAGE BOL              ON UNIT   1027 AT TIME STEP      1, STRESS PERIOD      1
 UBDSV06 SAVING              RCH IN MODEL 3D_CARTES        PACKAGE 3D_CARTES       CONNECTED TO MODEL 3D_CARTES        PACKAGE RCH              ON UNIT   1027 AT TIME STEP      1, STRESS PERIOD      1
 UBDSV06 SAVING              RCH IN MODEL 3D_CARTES        PACKAGE 3D_CARTES       CONNECTED TO MODEL 3D_CARTES        PACKAGE IRRIG            ON UNIT   1027 AT TIME STEP      1, STRESS PERIOD      1
 UBDSV06 SAVING              RCH IN MODEL 3D_CARTES        PACKAGE 3D_CARTES       CONNECTED TO MODEL 3D_CARTES        PACKAGE P_AGRI           ON UNIT   1027 AT TIME STEP      1, STRESS PERIOD      1
 UBDSV06 SAVING              CHD IN MODEL 3D_CARTES        PACKAGE 3D_CARTES       CONNECTED TO MODEL 3D_CARTES        PACKAGE SEA              ON UNIT   1027 AT TIME STEP      1, STRESS PERIOD      1
 UBDSV06 SAVING              CHD IN MODEL 3D_CARTES        PACKAGE 3D_CARTES       CONNECTED TO MODEL 3D_CARTES        PACKAGE THUIR            ON UNIT   1027 AT TIME STEP      1, STRESS PERIOD      1

 HEAD WILL BE SAVED ON UNIT 1028 AT END OF TIME STEP    1, STRESS PERIOD    1


  VOLUME BUDGET FOR ENTIRE MODEL AT END OF TIME STEP    1, STRESS PERIOD   1
  ---------------------------------------------------------------------------------------------------

     CUMULATIVE VOLUME      L**3       RATES FOR THIS TIME STEP      L**3/T          PACKAGE NAME    
     ------------------                 ------------------------                     ----------------

           IN:                                      IN:
           ---                                      ---
                 WEL =           0.0000                   WEL =           0.0000     WEL             
                 WEL =           0.2000                   WEL =           0.2000     CORB            
                 DRN =           0.0000                   DRN =           0.0000     ETA             
                 RIV =           0.0000                   RIV =           0.0000     AGLY            
                 RIV =       5.3739E-02                   RIV =       5.3739E-02     TET             
                 RIV =           0.1457                   RIV =           0.1457     REA             
                 RIV =       9.6258E-02                   RIV =       9.6258E-02     CANT            
                 RIV =           0.1029                   RIV =           0.1029     TECH            
                 RIV =           0.3998                   RIV =           0.3998     BOL             
                 RCH =           4.1325                   RCH =           4.1325     RCH             
                 RCH =           1.6425                   RCH =           1.6425     IRRIG           
                 RCH =           0.0000                   RCH =           0.0000     P_AGRI          
                 CHD =           6.0100                   CHD =           6.0100     SEA             
                 CHD =           0.2984                   CHD =           0.2984     THUIR           

            TOTAL IN =          13.0817              TOTAL IN =          13.0817

          OUT:                                     OUT:
          ----                                     ----
                 WEL =           1.3665                   WEL =           1.3665     WEL             
                 WEL =           0.0000                   WEL =           0.0000     CORB            
                 DRN =           1.1097                   DRN =           1.1097     ETA             
                 RIV =           0.3026                   RIV =           0.3026     AGLY            
                 RIV =           1.9894                   RIV =           1.9894     TET             
                 RIV =           0.1740                   RIV =           0.1740     REA             
                 RIV =           0.1078                   RIV =           0.1078     CANT            
                 RIV =           0.3622                   RIV =           0.3622     TECH            
                 RIV =       5.3531E-03                   RIV =       5.3531E-03     BOL             
                 RCH =           0.0000                   RCH =           0.0000     RCH             
                 RCH =           0.0000                   RCH =           0.0000     IRRIG           
                 RCH =           0.5529                   RCH =           0.5529     P_AGRI          
                 CHD =           7.1105                   CHD =           7.1105     SEA             
                 CHD =           0.0000                   CHD =           0.0000     THUIR           

           TOTAL OUT =          13.0809             TOTAL OUT =          13.0809

            IN - OUT =       7.7141E-04              IN - OUT =       7.7141E-04

 PERCENT DISCREPANCY =           0.01     PERCENT DISCREPANCY =           0.01




         TIME SUMMARY AT END OF TIME STEP    1 IN STRESS PERIOD    1
                    SECONDS     MINUTES      HOURS       DAYS        YEARS
                    -----------------------------------------------------------
   TIME STEP LENGTH  1.0000     1.66667E-02 2.77778E-04 1.15741E-05 3.16881E-08
 STRESS PERIOD TIME  1.0000     1.66667E-02 2.77778E-04 1.15741E-05 3.16881E-08
         TOTAL TIME  1.0000     1.66667E-02 2.77778E-04 1.15741E-05 3.16881E-08
