                                   MODFLOW 6
                U.S. GEOLOGICAL SURVEY MODULAR HYDROLOGIC MODEL
                          GROUNDWATER FLOW MODEL (GWF)
                            VERSION 6.0.4 03/13/2019

   MODFLOW 6 compiled Mar 21 2019 15:37:31 with IFORT compiler (ver. 19.0.0)

This software has been approved for release by the U.S. Geological 
Survey (USGS). Although the software has been subjected to rigorous 
review, the USGS reserves the right to update the software as needed 
pursuant to further analysis and review. No warranty, expressed or 
implied, is made by the USGS or the U.S. Government as to the 
functionality of the software and related material nor shall the 
fact of release constitute any such warranty. Furthermore, the 
software is released on condition that neither the USGS nor the U.S. 
Government shall be held liable for any damages resulting from its 
authorized or unauthorized use. Also refer to the USGS Water 
Resources Software User Rights Notice for complete use, copyright, 
and distribution information.


MODFLOW was compiled using uniform precision.
Precision of REAL variables: 15


 OPENED pest_3D_R.dis
 FILE TYPE:DIS6                   UNIT 1005   STATUS:OLD                 
 FORMAT:FORMATTED              ACCESS:SEQUENTIAL          
 ACTION:READ                


 OPENED pest_3D_R.ic
 FILE TYPE:IC6                    UNIT 1006   STATUS:OLD                 
 FORMAT:FORMATTED              ACCESS:SEQUENTIAL          
 ACTION:READ                


 OPENED pest_3D_R.oc
 FILE TYPE:OC6                    UNIT 1007   STATUS:OLD                 
 FORMAT:FORMATTED              ACCESS:SEQUENTIAL          
 ACTION:READ                


 OPENED pest_3D_R.npf
 FILE TYPE:NPF6                   UNIT 1008   STATUS:OLD                 
 FORMAT:FORMATTED              ACCESS:SEQUENTIAL          
 ACTION:READ                


 OPENED pest_3D_R.wel
 FILE TYPE:WEL6                   UNIT 1009   STATUS:OLD                 
 FORMAT:FORMATTED              ACCESS:SEQUENTIAL          
 ACTION:READ                


 OPENED pest_3D_R.rch
 FILE TYPE:RCH6                   UNIT 1010   STATUS:OLD                 
 FORMAT:FORMATTED              ACCESS:SEQUENTIAL          
 ACTION:READ                


 OPENED irri.rch
 FILE TYPE:RCH6                   UNIT 1011   STATUS:OLD                 
 FORMAT:FORMATTED              ACCESS:SEQUENTIAL          
 ACTION:READ                


 OPENED p_agri.rch
 FILE TYPE:RCH6                   UNIT 1012   STATUS:OLD                 
 FORMAT:FORMATTED              ACCESS:SEQUENTIAL          
 ACTION:READ                


 OPENED Corb.wel
 FILE TYPE:WEL6                   UNIT 1013   STATUS:OLD                 
 FORMAT:FORMATTED              ACCESS:SEQUENTIAL          
 ACTION:READ                


 OPENED sea.chd
 FILE TYPE:CHD6                   UNIT 1014   STATUS:OLD                 
 FORMAT:FORMATTED              ACCESS:SEQUENTIAL          
 ACTION:READ                


 OPENED thuir.chd
 FILE TYPE:CHD6                   UNIT 1015   STATUS:OLD                 
 FORMAT:FORMATTED              ACCESS:SEQUENTIAL          
 ACTION:READ                


 OPENED eta.drn
 FILE TYPE:DRN6                   UNIT 1016   STATUS:OLD                 
 FORMAT:FORMATTED              ACCESS:SEQUENTIAL          
 ACTION:READ                


 OPENED agly.riv
 FILE TYPE:RIV6                   UNIT 1017   STATUS:OLD                 
 FORMAT:FORMATTED              ACCESS:SEQUENTIAL          
 ACTION:READ                


 OPENED Tet.riv
 FILE TYPE:RIV6                   UNIT 1018   STATUS:OLD                 
 FORMAT:FORMATTED              ACCESS:SEQUENTIAL          
 ACTION:READ                


 OPENED Rea.riv
 FILE TYPE:RIV6                   UNIT 1019   STATUS:OLD                 
 FORMAT:FORMATTED              ACCESS:SEQUENTIAL          
 ACTION:READ                


 OPENED Cant.riv
 FILE TYPE:RIV6                   UNIT 1020   STATUS:OLD                 
 FORMAT:FORMATTED              ACCESS:SEQUENTIAL          
 ACTION:READ                


 OPENED Tech.riv
 FILE TYPE:RIV6                   UNIT 1021   STATUS:OLD                 
 FORMAT:FORMATTED              ACCESS:SEQUENTIAL          
 ACTION:READ                


 OPENED Bol.riv
 FILE TYPE:RIV6                   UNIT 1022   STATUS:OLD                 
 FORMAT:FORMATTED              ACCESS:SEQUENTIAL          
 ACTION:READ                


 OPENED pest_3D_R.obs
 FILE TYPE:OBS6                   UNIT 1023   STATUS:OLD                 
 FORMAT:FORMATTED              ACCESS:SEQUENTIAL          
 ACTION:READ                


 DIS -- STRUCTURED GRID DISCRETIZATION PACKAGE, VERSION 2 : 3/27/2014 - INPUT READ FROM UNIT 1005


 PROCESSING DISCRETIZATION OPTIONS
    XORIGIN SPECIFIED AS     664525.000000000    
    YORIGIN SPECIFIED AS     6152875.00000000    
 END OF DISCRETIZATION OPTIONS
 MODEL LENGTH UNIT IS UNDEFINED
 PROCESSING DISCRETIZATION DIMENSIONS
    NLAY =       5
    NROW =     182
    NCOL =     183
 END OF DISCRETIZATION DIMENSIONS
 PROCESSING GRIDDATA
 END PROCESSING GRIDDATA

 THE SPECIFIED IDOMAIN RESULTS IN A REDUCED NUMBER OF CELLS.
 NUMBER OF USER NODES:  166530
 NUMBER OF NODES IN SOLUTION:   69710



 NPF -- NODE PROPERTY FLOW PACKAGE, VERSION 1, 3/30/2015 INPUT READ FROM UNIT 1008


 PROCESSING NPF OPTIONS
    CELL-BY-CELL FLOW INFORMATION WILL BE SAVED TO BINARY FILE WHENEVER ICBCFL IS NOT ZERO.
 END OF NPF OPTIONS

 WEL   -- WEL PACKAGE, VERSION 8, 2/22/2014 INPUT READ FROM UNIT 1009

 PROCESSING WEL OPTIONS
    FLOWS WILL BE SAVED TO BUDGET FILE SPECIFIED IN OUTPUT CONTROL
 END OF WEL OPTIONS

 PROCESSING WEL DIMENSIONS
    MAXBOUND =     291
 END OF WEL DIMENSIONS

 WEL   -- WEL PACKAGE, VERSION 8, 2/22/2014 INPUT READ FROM UNIT 1013

 PROCESSING WEL OPTIONS
    FLOWS WILL BE SAVED TO BUDGET FILE SPECIFIED IN OUTPUT CONTROL
 END OF WEL OPTIONS

 PROCESSING WEL DIMENSIONS
    MAXBOUND =      97
 END OF WEL DIMENSIONS

 DRN   -- DRN PACKAGE, VERSION 8, 2/22/2014 INPUT READ FROM UNIT 1016

 PROCESSING DRN OPTIONS
    FLOWS WILL BE SAVED TO BUDGET FILE SPECIFIED IN OUTPUT CONTROL
 END OF DRN OPTIONS

 PROCESSING DRN DIMENSIONS
    MAXBOUND =     644
 END OF DRN DIMENSIONS

 RIV   -- RIV PACKAGE, VERSION 8, 2/22/2014 INPUT READ FROM UNIT 1017

 PROCESSING RIV OPTIONS
    FLOWS WILL BE SAVED TO BUDGET FILE SPECIFIED IN OUTPUT CONTROL
 END OF RIV OPTIONS

 PROCESSING RIV DIMENSIONS
    MAXBOUND =      86
 END OF RIV DIMENSIONS

 RIV   -- RIV PACKAGE, VERSION 8, 2/22/2014 INPUT READ FROM UNIT 1018

 PROCESSING RIV OPTIONS
    FLOWS WILL BE SAVED TO BUDGET FILE SPECIFIED IN OUTPUT CONTROL
 END OF RIV OPTIONS

 PROCESSING RIV DIMENSIONS
    MAXBOUND =     173
 END OF RIV DIMENSIONS

 RIV   -- RIV PACKAGE, VERSION 8, 2/22/2014 INPUT READ FROM UNIT 1019

 PROCESSING RIV OPTIONS
    FLOWS WILL BE SAVED TO BUDGET FILE SPECIFIED IN OUTPUT CONTROL
 END OF RIV OPTIONS

 PROCESSING RIV DIMENSIONS
    MAXBOUND =     129
 END OF RIV DIMENSIONS

 RIV   -- RIV PACKAGE, VERSION 8, 2/22/2014 INPUT READ FROM UNIT 1020

 PROCESSING RIV OPTIONS
    FLOWS WILL BE SAVED TO BUDGET FILE SPECIFIED IN OUTPUT CONTROL
 END OF RIV OPTIONS

 PROCESSING RIV DIMENSIONS
    MAXBOUND =      66
 END OF RIV DIMENSIONS

 RIV   -- RIV PACKAGE, VERSION 8, 2/22/2014 INPUT READ FROM UNIT 1021

 PROCESSING RIV OPTIONS
    FLOWS WILL BE SAVED TO BUDGET FILE SPECIFIED IN OUTPUT CONTROL
 END OF RIV OPTIONS

 PROCESSING RIV DIMENSIONS
    MAXBOUND =     113
 END OF RIV DIMENSIONS

 RIV   -- RIV PACKAGE, VERSION 8, 2/22/2014 INPUT READ FROM UNIT 1022

 PROCESSING RIV OPTIONS
    FLOWS WILL BE SAVED TO BUDGET FILE SPECIFIED IN OUTPUT CONTROL
 END OF RIV OPTIONS

 PROCESSING RIV DIMENSIONS
    MAXBOUND =      47
 END OF RIV DIMENSIONS

 RCH   -- RCH PACKAGE, VERSION 8, 2/22/2014 INPUT READ FROM UNIT 1010

 PROCESSING RCH OPTIONS
    FLOWS WILL BE SAVED TO BUDGET FILE SPECIFIED IN OUTPUT CONTROL
 END OF RCH OPTIONS

 PROCESSING RCH DIMENSIONS
    MAXBOUND =    9495
 END OF RCH DIMENSIONS

 RCH   -- RCH PACKAGE, VERSION 8, 2/22/2014 INPUT READ FROM UNIT 1011

 PROCESSING RCH OPTIONS
    RECHARGE INPUT WILL BE READ AS ARRAY(S).
    FLOWS WILL BE SAVED TO BUDGET FILE SPECIFIED IN OUTPUT CONTROL
 END OF RCH OPTIONS

 RCH   -- RCH PACKAGE, VERSION 8, 2/22/2014 INPUT READ FROM UNIT 1012

 PROCESSING RCH OPTIONS
    FLOWS WILL BE SAVED TO BUDGET FILE SPECIFIED IN OUTPUT CONTROL
 END OF RCH OPTIONS

 PROCESSING RCH DIMENSIONS
    MAXBOUND =    6705
 END OF RCH DIMENSIONS

 CHD   -- CHD PACKAGE, VERSION 8, 2/22/2014 INPUT READ FROM UNIT 1014

 PROCESSING CHD OPTIONS
    FLOWS WILL BE SAVED TO BUDGET FILE SPECIFIED IN OUTPUT CONTROL
 END OF CHD OPTIONS

 PROCESSING CHD DIMENSIONS
    MAXBOUND =    7350
 END OF CHD DIMENSIONS

 CHD   -- CHD PACKAGE, VERSION 8, 2/22/2014 INPUT READ FROM UNIT 1015

 PROCESSING CHD OPTIONS
    FLOWS WILL BE SAVED TO BUDGET FILE SPECIFIED IN OUTPUT CONTROL
 END OF CHD OPTIONS

 PROCESSING CHD DIMENSIONS
    MAXBOUND =      32
 END OF CHD DIMENSIONS

 IC -- INITIAL CONDITIONS PACKAGE, VERSION 8, 3/28/2015 INPUT READ FROM UNIT 1006
 PROCESSING GRIDDATA
 END PROCESSING GRIDDATA
 PROCESSING GRIDDATA

                ICELLTYPE = 0

 OPENED kqm.txt
 FILE TYPE:OPEN/CLOSE   UNIT 1025   STATUS:OLD                 
 FORMAT:FORMATTED              ACCESS:SEQUENTIAL          
 ACTION:READ                


 OPENED kq.txt
 FILE TYPE:OPEN/CLOSE   UNIT 1026   STATUS:OLD                 
 FORMAT:FORMATTED              ACCESS:SEQUENTIAL          
 ACTION:READ                


 OPENED kep.txt
 FILE TYPE:OPEN/CLOSE   UNIT 1027   STATUS:OLD                 
 FORMAT:FORMATTED              ACCESS:SEQUENTIAL          
 ACTION:READ                


 OPENED kpc.txt
 FILE TYPE:OPEN/CLOSE   UNIT 1028   STATUS:OLD                 
 FORMAT:FORMATTED              ACCESS:SEQUENTIAL          
 ACTION:READ                


 OPENED kpms.txt
 FILE TYPE:OPEN/CLOSE   UNIT 1029   STATUS:OLD                 
 FORMAT:FORMATTED              ACCESS:SEQUENTIAL          
 ACTION:READ                

 K33 not provided.  Assuming K33 = K.
 K22 not provided.  Assuming K22 = K.
 END PROCESSING GRIDDATA

The observation utility is active for "PEST_3D_R"

Processing observation options:

Text output number of digits of precision set to: 10
The PRINT_INPUT option has been specified.


Observations read from file "pest_3D_R.obs":
Name                                      Type                             Time         Location data
----------------------------------------  -------------------------------  -----------  --------------------------
3_50_94                                   Continuous HEAD                  All times    "4 51 95"
3_57_83                                   Continuous HEAD                  All times    "4 58 84"
3_62_126                                  Continuous HEAD                  All times    "4 63 127"
3_63_94                                   Continuous HEAD                  All times    "4 64 95"
3_63_99                                   Continuous HEAD                  All times    "4 64 100"
3_64_92                                   Continuous HEAD                  All times    "4 65 93"
3_64_96                                   Continuous HEAD                  All times    "4 65 97"
3_66_128                                  Continuous HEAD                  All times    "4 67 129"
3_69_104                                  Continuous HEAD                  All times    "4 70 105"
3_69_118                                  Continuous HEAD                  All times    "4 70 119"
3_71_72                                   Continuous HEAD                  All times    "4 72 73"
3_75_124                                  Continuous HEAD                  All times    "4 76 125"
3_79_66                                   Continuous HEAD                  All times    "4 80 67"
3_79_77                                   Continuous HEAD                  All times    "4 80 78"
3_82_115                                  Continuous HEAD                  All times    "4 83 116"
3_83_67                                   Continuous HEAD                  All times    "4 84 68"
3_84_94                                   Continuous HEAD                  All times    "4 85 95"
3_84_125                                  Continuous HEAD                  All times    "4 85 126"
3_91_101                                  Continuous HEAD                  All times    "4 92 102"
3_95_128                                  Continuous HEAD                  All times    "4 96 129"
3_98_43                                   Continuous HEAD                  All times    "4 99 44"
3_98_91                                   Continuous HEAD                  All times    "4 99 92"
3_99_118                                  Continuous HEAD                  All times    "4 100 119"
3_101_59                                  Continuous HEAD                  All times    "4 102 60"
3_102_22                                  Continuous HEAD                  All times    "4 103 23"
3_102_28                                  Continuous HEAD                  All times    "4 103 29"
3_103_32                                  Continuous HEAD                  All times    "4 104 33"
3_104_74                                  Continuous HEAD                  All times    "4 105 75"
3_108_42                                  Continuous HEAD                  All times    "4 109 43"
3_109_12                                  Continuous HEAD                  All times    "4 110 13"
3_111_42                                  Continuous HEAD                  All times    "4 112 43"
3_112_61                                  Continuous HEAD                  All times    "4 113 62"
3_113_102                                 Continuous HEAD                  All times    "4 114 103"
3_114_114                                 Continuous HEAD                  All times    "4 115 115"
3_116_1                                   Continuous HEAD                  All times    "4 117 2"
3_116_59                                  Continuous HEAD                  All times    "4 117 60"
3_119_43                                  Continuous HEAD                  All times    "4 120 44"
3_120_123                                 Continuous HEAD                  All times    "4 121 124"
3_122_94                                  Continuous HEAD                  All times    "4 123 95"
3_125_75                                  Continuous HEAD                  All times    "4 126 76"
3_129_86                                  Continuous HEAD                  All times    "4 130 87"
3_129_100                                 Continuous HEAD                  All times    "4 130 101"
3_132_50                                  Continuous HEAD                  All times    "4 133 51"
3_136_70                                  Continuous HEAD                  All times    "4 137 71"
3_140_74                                  Continuous HEAD                  All times    "4 141 75"
3_140_89                                  Continuous HEAD                  All times    "4 141 90"
3_141_114                                 Continuous HEAD                  All times    "4 142 115"
3_148_98                                  Continuous HEAD                  All times    "4 149 99"
1_56_126                                  Continuous HEAD                  All times    "2 57 127"
1_63_117                                  Continuous HEAD                  All times    "2 64 118"
1_64_104                                  Continuous HEAD                  All times    "2 65 105"
1_64_111                                  Continuous HEAD                  All times    "2 65 112"
1_67_110                                  Continuous HEAD                  All times    "2 68 111"
1_67_119                                  Continuous HEAD                  All times    "2 68 120"
1_68_71                                   Continuous HEAD                  All times    "2 69 72"
1_69_105                                  Continuous HEAD                  All times    "2 70 106"
1_69_116                                  Continuous HEAD                  All times    "2 70 117"
1_70_73                                   Continuous HEAD                  All times    "2 71 74"
1_73_83                                   Continuous HEAD                  All times    "2 74 84"
1_74_115                                  Continuous HEAD                  All times    "2 75 116"
1_76_89                                   Continuous HEAD                  All times    "2 77 90"
1_80_103                                  Continuous HEAD                  All times    "2 81 104"
1_83_95                                   Continuous HEAD                  All times    "2 84 96"
1_83_106                                  Continuous HEAD                  All times    "2 84 107"
1_83_124                                  Continuous HEAD                  All times    "2 84 125"
1_84_127                                  Continuous HEAD                  All times    "2 85 128"
1_88_110                                  Continuous HEAD                  All times    "2 89 111"
1_92_93                                   Continuous HEAD                  All times    "2 93 94"
1_93_114                                  Continuous HEAD                  All times    "2 94 115"
1_94_95                                   Continuous HEAD                  All times    "2 95 96"
1_94_103                                  Continuous HEAD                  All times    "2 95 104"
1_94_115                                  Continuous HEAD                  All times    "2 95 116"
1_95_75                                   Continuous HEAD                  All times    "2 96 76"
1_95_81                                   Continuous HEAD                  All times    "2 96 82"
1_95_95                                   Continuous HEAD                  All times    "2 96 96"
1_99_44                                   Continuous HEAD                  All times    "2 100 45"
1_100_51                                  Continuous HEAD                  All times    "2 101 52"
1_100_75                                  Continuous HEAD                  All times    "2 101 76"
1_101_53                                  Continuous HEAD                  All times    "2 102 54"
1_102_24                                  Continuous HEAD                  All times    "2 103 25"
1_102_57                                  Continuous HEAD                  All times    "2 103 58"
1_103_32                                  Continuous HEAD                  All times    "2 104 33"
1_104_45                                  Continuous HEAD                  All times    "2 105 46"
1_106_17                                  Continuous HEAD                  All times    "2 107 18"
1_106_58                                  Continuous HEAD                  All times    "2 107 59"
1_106_71                                  Continuous HEAD                  All times    "2 107 72"
1_108_24                                  Continuous HEAD                  All times    "2 109 25"
1_108_43                                  Continuous HEAD                  All times    "2 109 44"
1_110_22                                  Continuous HEAD                  All times    "2 111 23"
1_112_16                                  Continuous HEAD                  All times    "2 113 17"
1_112_61                                  Continuous HEAD                  All times    "2 113 62"
1_114_6                                   Continuous HEAD                  All times    "2 115 7"
1_114_13                                  Continuous HEAD                  All times    "2 115 14"
1_115_66                                  Continuous HEAD                  All times    "2 116 67"
1_116_60                                  Continuous HEAD                  All times    "2 117 61"
1_116_100                                 Continuous HEAD                  All times    "2 117 101"
1_120_112                                 Continuous HEAD                  All times    "2 121 113"
1_121_82                                  Continuous HEAD                  All times    "2 122 83"
1_121_104                                 Continuous HEAD                  All times    "2 122 105"
1_131_65                                  Continuous HEAD                  All times    "2 132 66"
1_135_119                                 Continuous HEAD                  All times    "2 136 120"
1_137_73                                  Continuous HEAD                  All times    "2 138 74"
1_138_116                                 Continuous HEAD                  All times    "2 139 117"
1_139_122                                 Continuous HEAD                  All times    "2 140 123"
1_142_116                                 Continuous HEAD                  All times    "2 143 117"
1_143_107                                 Continuous HEAD                  All times    "2 144 108"
1_146_106                                 Continuous HEAD                  All times    "2 147 107"
1_147_91                                  Continuous HEAD                  All times    "2 148 92"
1_147_97                                  Continuous HEAD                  All times    "2 148 98"
1_149_129                                 Continuous HEAD                  All times    "2 150 130"
1_152_94                                  Continuous HEAD                  All times    "2 153 95"
1_153_111                                 Continuous HEAD                  All times    "2 154 112"
1_153_113                                 Continuous HEAD                  All times    "2 154 114"
1_153_124                                 Continuous HEAD                  All times    "2 154 125"
1_154_126                                 Continuous HEAD                  All times    "2 155 127"
1_155_123                                 Continuous HEAD                  All times    "2 156 124"
1_155_131                                 Continuous HEAD                  All times    "2 156 132"
1_156_96                                  Continuous HEAD                  All times    "2 157 97"
1_156_99                                  Continuous HEAD                  All times    "2 157 100"
1_165_101                                 Continuous HEAD                  All times    "2 166 102"
1_167_59                                  Continuous HEAD                  All times    "2 168 60"
1_167_66                                  Continuous HEAD                  All times    "2 168 67"
QMAP_1_45_124                             Continuous HEAD                  All times    "2 46 125"
QMAP_1_170_54                             Continuous HEAD                  All times    "2 171 55"
QMAP_1_97_71                              Continuous HEAD                  All times    "2 98 72"
QMAP_1_35_130                             Continuous HEAD                  All times    "2 36 131"
QMAP_1_151_91                             Continuous HEAD                  All times    "2 152 92"
QMAP_1_167_55                             Continuous HEAD                  All times    "2 168 56"
QMAP_1_79_93                              Continuous HEAD                  All times    "2 80 94"
QMAP_1_139_120                            Continuous HEAD                  All times    "2 140 121"
QMAP_1_112_42                             Continuous HEAD                  All times    "2 113 43"
QMAP_1_60_86                              Continuous HEAD                  All times    "2 61 87"
QMAP_1_83_116                             Continuous HEAD                  All times    "2 84 117"
QMAP_1_48_117                             Continuous HEAD                  All times    "2 49 118"
QMAP_1_121_104                            Continuous HEAD                  All times    "2 122 105"
QMAP_1_51_120                             Continuous HEAD                  All times    "2 52 121"
QMAP_1_128_81                             Continuous HEAD                  All times    "2 129 82"
QMAP_1_130_113                            Continuous HEAD                  All times    "2 131 114"
QMAP_1_168_66                             Continuous HEAD                  All times    "2 169 67"
QMAP_1_25_128                             Continuous HEAD                  All times    "2 26 129"
QMAP_1_117_34                             Continuous HEAD                  All times    "2 118 35"
QMAP_1_164_93                             Continuous HEAD                  All times    "2 165 94"
QMAP_1_63_82                              Continuous HEAD                  All times    "2 64 83"
QMAP_1_88_107                             Continuous HEAD                  All times    "2 89 108"
QMAP_1_112_10                             Continuous HEAD                  All times    "2 113 11"
QMAP_1_174_47                             Continuous HEAD                  All times    "2 175 48"
QMAP_1_142_112                            Continuous HEAD                  All times    "2 143 113"
QMAP_1_42_121                             Continuous HEAD                  All times    "2 43 122"
QMAP_1_64_108                             Continuous HEAD                  All times    "2 65 109"
QMAP_1_116_90                             Continuous HEAD                  All times    "2 117 91"
QMAP_1_81_93                              Continuous HEAD                  All times    "2 82 94"
QMAP_1_43_126                             Continuous HEAD                  All times    "2 44 127"
QMAP_1_159_122                            Continuous HEAD                  All times    "2 160 123"
QMAP_1_26_131                             Continuous HEAD                  All times    "2 27 132"
QMAP_1_102_20                             Continuous HEAD                  All times    "2 103 21"
QMAP_1_111_55                             Continuous HEAD                  All times    "2 112 56"
QMAP_1_149_114                            Continuous HEAD                  All times    "2 150 115"
QMAP_1_39_125                             Continuous HEAD                  All times    "2 40 126"
QMAP_1_123_127                            Continuous HEAD                  All times    "2 124 128"
QMAP_1_32_123                             Continuous HEAD                  All times    "2 33 124"
QMAP_1_130_71                             Continuous HEAD                  All times    "2 131 72"
QMAP_1_116_122                            Continuous HEAD                  All times    "2 117 123"
QMAP_1_101_125                            Continuous HEAD                  All times    "2 102 126"
QMAP_1_49_96                              Continuous HEAD                  All times    "2 50 97"
QMAP_1_130_115                            Continuous HEAD                  All times    "2 131 116"
QMAP_1_173_52                             Continuous HEAD                  All times    "2 174 53"
QMAP_1_86_88                              Continuous HEAD                  All times    "2 87 89"
QMAP_1_92_103                             Continuous HEAD                  All times    "2 93 104"
QMAP_1_160_112                            Continuous HEAD                  All times    "2 161 113"
QMAP_1_58_89                              Continuous HEAD                  All times    "2 59 90"
QMAP_1_36_126                             Continuous HEAD                  All times    "2 37 127"
QMAP_1_110_104                            Continuous HEAD                  All times    "2 111 105"
QMAP_1_168_63                             Continuous HEAD                  All times    "2 169 64"
QMAP_1_114_7                              Continuous HEAD                  All times    "2 115 8"
QMAP_1_132_112                            Continuous HEAD                  All times    "2 133 113"
QMAP_1_86_94                              Continuous HEAD                  All times    "2 87 95"
QMAP_1_171_52                             Continuous HEAD                  All times    "2 172 53"
QMAP_1_153_113                            Continuous HEAD                  All times    "2 154 114"
QMAP_1_29_120                             Continuous HEAD                  All times    "2 30 121"
QMAP_1_112_28                             Continuous HEAD                  All times    "2 113 29"
QMAP_1_158_89                             Continuous HEAD                  All times    "2 159 90"
QMAP_1_71_76                              Continuous HEAD                  All times    "2 72 77"
QMAP_1_32_118                             Continuous HEAD                  All times    "2 33 119"
QMAP_1_86_101                             Continuous HEAD                  All times    "2 87 102"
QMAP_1_41_121                             Continuous HEAD                  All times    "2 42 122"
QMAP_1_100_30                             Continuous HEAD                  All times    "2 101 31"
QMAP_1_123_83                             Continuous HEAD                  All times    "2 124 84"
QMAP_1_67_88                              Continuous HEAD                  All times    "2 68 89"
QMAP_1_150_130                            Continuous HEAD                  All times    "2 151 131"
QMAP_1_74_92                              Continuous HEAD                  All times    "2 75 93"
QMAP_1_87_120                             Continuous HEAD                  All times    "2 88 121"
QMAP_1_154_86                             Continuous HEAD                  All times    "2 155 87"
QMAP_1_127_82                             Continuous HEAD                  All times    "2 128 83"
QMAP_1_69_81                              Continuous HEAD                  All times    "2 70 82"
QMAP_1_142_129                            Continuous HEAD                  All times    "2 143 130"
QMAP_1_62_115                             Continuous HEAD                  All times    "2 63 116"
QMAP_1_75_102                             Continuous HEAD                  All times    "2 76 103"
QMAP_1_148_130                            Continuous HEAD                  All times    "2 149 131"
QMAP_1_81_105                             Continuous HEAD                  All times    "2 82 106"
QMAP_1_112_107                            Continuous HEAD                  All times    "2 113 108"
QMAP_1_114_41                             Continuous HEAD                  All times    "2 115 42"
QMAP_1_48_97                              Continuous HEAD                  All times    "2 49 98"
QMAP_1_157_111                            Continuous HEAD                  All times    "2 158 112"
QMAP_1_88_101                             Continuous HEAD                  All times    "2 89 102"
QMAP_1_52_109                             Continuous HEAD                  All times    "2 53 110"
QMAP_1_151_101                            Continuous HEAD                  All times    "2 152 102"
QMAP_1_63_108                             Continuous HEAD                  All times    "2 64 109"
QMAP_1_111_38                             Continuous HEAD                  All times    "2 112 39"
QMAP_1_101_22                             Continuous HEAD                  All times    "2 102 23"
QMAP_1_96_85                              Continuous HEAD                  All times    "2 97 86"
QMAP_1_85_120                             Continuous HEAD                  All times    "2 86 121"
QMAP_1_115_59                             Continuous HEAD                  All times    "2 116 60"
QMAP_1_49_94                              Continuous HEAD                  All times    "2 50 95"
QMAP_1_73_88                              Continuous HEAD                  All times    "2 74 89"
QMAP_1_117_52                             Continuous HEAD                  All times    "2 118 53"
QMAP_1_88_110                             Continuous HEAD                  All times    "2 89 111"
QMAP_1_42_128                             Continuous HEAD                  All times    "2 43 129"
QMAP_1_152_99                             Continuous HEAD                  All times    "2 153 100"
QMAP_1_147_103                            Continuous HEAD                  All times    "2 148 104"
QMAP_1_98_92                              Continuous HEAD                  All times    "2 99 93"
QMAP_1_138_112                            Continuous HEAD                  All times    "2 139 113"
QMAP_1_80_123                             Continuous HEAD                  All times    "2 81 124"
QMAP_1_70_80                              Continuous HEAD                  All times    "2 71 81"
QMAP_1_142_130                            Continuous HEAD                  All times    "2 143 131"
QMAP_1_94_77                              Continuous HEAD                  All times    "2 95 78"
QMAP_1_158_77                             Continuous HEAD                  All times    "2 159 78"
QMAP_1_118_50                             Continuous HEAD                  All times    "2 119 51"
QMAP_1_59_100                             Continuous HEAD                  All times    "2 60 101"
QMAP_1_53_96                              Continuous HEAD                  All times    "2 54 97"
QMAP_1_163_103                            Continuous HEAD                  All times    "2 164 104"
QMAP_1_137_117                            Continuous HEAD                  All times    "2 138 118"
QMAP_1_100_37                             Continuous HEAD                  All times    "2 101 38"
QMAP_1_119_103                            Continuous HEAD                  All times    "2 120 104"
QMAP_1_144_110                            Continuous HEAD                  All times    "2 145 111"
QMAP_1_107_49                             Continuous HEAD                  All times    "2 108 50"
QMAP_1_57_82                              Continuous HEAD                  All times    "2 58 83"
QMAP_1_56_91                              Continuous HEAD                  All times    "2 57 92"
QMAP_1_97_80                              Continuous HEAD                  All times    "2 98 81"
QMAP_1_159_84                             Continuous HEAD                  All times    "2 160 85"
QMAP_1_67_103                             Continuous HEAD                  All times    "2 68 104"
QMAP_1_153_98                             Continuous HEAD                  All times    "2 154 99"
QMAP_1_178_55                             Continuous HEAD                  All times    "2 179 56"
QMAP_1_117_56                             Continuous HEAD                  All times    "2 118 57"
QMAP_1_117_99                             Continuous HEAD                  All times    "2 118 100"
QMAP_1_149_98                             Continuous HEAD                  All times    "2 150 99"
QMAP_1_83_92                              Continuous HEAD                  All times    "2 84 93"
QMAP_1_147_108                            Continuous HEAD                  All times    "2 148 109"
QMAP_1_164_105                            Continuous HEAD                  All times    "2 165 106"
QMAP_1_147_116                            Continuous HEAD                  All times    "2 148 117"
QMAP_1_130_129                            Continuous HEAD                  All times    "2 131 130"
QMAP_1_115_110                            Continuous HEAD                  All times    "2 116 111"
QMAP_1_55_101                             Continuous HEAD                  All times    "2 56 102"
QMAP_1_64_110                             Continuous HEAD                  All times    "2 65 111"
QMAP_1_107_29                             Continuous HEAD                  All times    "2 108 30"
QMAP_1_143_111                            Continuous HEAD                  All times    "2 144 112"
QMAP_1_100_26                             Continuous HEAD                  All times    "2 101 27"
QMAP_1_32_131                             Continuous HEAD                  All times    "2 33 132"
QMAP_1_103_63                             Continuous HEAD                  All times    "2 104 64"
QMAP_1_167_63                             Continuous HEAD                  All times    "2 168 64"
QMAP_1_82_127                             Continuous HEAD                  All times    "2 83 128"
QMAP_1_115_43                             Continuous HEAD                  All times    "2 116 44"
QMAP_1_67_79                              Continuous HEAD                  All times    "2 68 80"
QMAP_1_140_107                            Continuous HEAD                  All times    "2 141 108"
QMAP_1_40_108                             Continuous HEAD                  All times    "2 41 109"
QMAP_1_116_36                             Continuous HEAD                  All times    "2 117 37"
QMAP_1_64_88                              Continuous HEAD                  All times    "2 65 89"
QMAP_1_73_91                              Continuous HEAD                  All times    "2 74 92"
QMAP_1_78_100                             Continuous HEAD                  All times    "2 79 101"
QMAP_1_119_89                             Continuous HEAD                  All times    "2 120 90"
QMAP_1_141_114                            Continuous HEAD                  All times    "2 142 115"
QMAP_1_152_114                            Continuous HEAD                  All times    "2 153 115"
QMAP_1_68_127                             Continuous HEAD                  All times    "2 69 128"
QMAP_1_115_1                              Continuous HEAD                  All times    "2 116 2"
QMAP_1_138_71                             Continuous HEAD                  All times    "2 139 72"
QMAP_1_54_116                             Continuous HEAD                  All times    "2 55 117"
QMAP_1_25_129                             Continuous HEAD                  All times    "2 26 130"
QMAP_1_115_7                              Continuous HEAD                  All times    "2 116 8"
QMAP_1_73_124                             Continuous HEAD                  All times    "2 74 125"
QMAP_1_152_100                            Continuous HEAD                  All times    "2 153 101"
QMAP_1_104_20                             Continuous HEAD                  All times    "2 105 21"
QMAP_1_34_128                             Continuous HEAD                  All times    "2 35 129"
QMAP_1_64_123                             Continuous HEAD                  All times    "2 65 124"
QMAP_1_137_122                            Continuous HEAD                  All times    "2 138 123"
QMAP_1_155_99                             Continuous HEAD                  All times    "2 156 100"
QMAP_1_100_54                             Continuous HEAD                  All times    "2 101 55"
QMAP_1_105_16                             Continuous HEAD                  All times    "2 106 17"
QMAP_1_111_102                            Continuous HEAD                  All times    "2 112 103"
QMAP_1_103_51                             Continuous HEAD                  All times    "2 104 52"
QMAP_1_96_90                              Continuous HEAD                  All times    "2 97 91"
QMAP_1_164_67                             Continuous HEAD                  All times    "2 165 68"
QMAP_1_112_110                            Continuous HEAD                  All times    "2 113 111"
QMAP_1_111_64                             Continuous HEAD                  All times    "2 112 65"
QMAP_1_154_91                             Continuous HEAD                  All times    "2 155 92"
QMAP_1_70_96                              Continuous HEAD                  All times    "2 71 97"
QMAP_1_69_89                              Continuous HEAD                  All times    "2 70 90"
QMAP_1_149_99                             Continuous HEAD                  All times    "2 150 100"
QMAP_1_115_44                             Continuous HEAD                  All times    "2 116 45"
QMAP_1_126_75                             Continuous HEAD                  All times    "2 127 76"
QMAP_1_49_101                             Continuous HEAD                  All times    "2 50 102"
QMAP_1_55_85                              Continuous HEAD                  All times    "2 56 86"
QMAP_1_84_121                             Continuous HEAD                  All times    "2 85 122"
QMAP_1_68_123                             Continuous HEAD                  All times    "2 69 124"
QMAP_1_56_89                              Continuous HEAD                  All times    "2 57 90"
QMAP_1_70_128                             Continuous HEAD                  All times    "2 71 129"
QMAP_1_71_126                             Continuous HEAD                  All times    "2 72 127"
QMAP_1_112_71                             Continuous HEAD                  All times    "2 113 72"
QMAP_1_75_100                             Continuous HEAD                  All times    "2 76 101"
QMAP_1_52_128                             Continuous HEAD                  All times    "2 53 129"
QMAP_1_88_95                              Continuous HEAD                  All times    "2 89 96"
QMAP_1_146_104                            Continuous HEAD                  All times    "2 147 105"
QMAP_1_112_61                             Continuous HEAD                  All times    "2 113 62"
QMAP_1_62_78                              Continuous HEAD                  All times    "2 63 79"
QMAP_1_91_129                             Continuous HEAD                  All times    "2 92 130"
QMAP_1_162_89                             Continuous HEAD                  All times    "2 163 90"
QMAP_1_52_92                              Continuous HEAD                  All times    "2 53 93"
QMAP_1_85_100                             Continuous HEAD                  All times    "2 86 101"
QMAP_1_65_74                              Continuous HEAD                  All times    "2 66 75"
QMAP_1_116_112                            Continuous HEAD                  All times    "2 117 113"
QMAP_1_76_97                              Continuous HEAD                  All times    "2 77 98"
QMAP_1_67_95                              Continuous HEAD                  All times    "2 68 96"
QMAP_1_156_84                             Continuous HEAD                  All times    "2 157 85"
QMAP_1_125_82                             Continuous HEAD                  All times    "2 126 83"
PMAP_1_125_110                            Continuous HEAD                  All times    "4 126 111"
PMAP_1_81_123                             Continuous HEAD                  All times    "4 82 124"
PMAP_1_135_55                             Continuous HEAD                  All times    "4 136 56"
PMAP_1_49_110                             Continuous HEAD                  All times    "4 50 111"
PMAP_1_111_93                             Continuous HEAD                  All times    "4 112 94"
PMAP_1_144_130                            Continuous HEAD                  All times    "4 145 131"
PMAP_1_111_68                             Continuous HEAD                  All times    "4 112 69"
PMAP_1_62_101                             Continuous HEAD                  All times    "4 63 102"
PMAP_1_43_120                             Continuous HEAD                  All times    "4 44 121"
PMAP_1_86_115                             Continuous HEAD                  All times    "4 87 116"
PMAP_1_129_121                            Continuous HEAD                  All times    "4 130 122"
PMAP_1_105_107                            Continuous HEAD                  All times    "4 106 108"
PMAP_1_109_24                             Continuous HEAD                  All times    "4 110 25"
PMAP_1_166_103                            Continuous HEAD                  All times    "4 167 104"
PMAP_1_40_122                             Continuous HEAD                  All times    "4 41 123"
PMAP_1_92_74                              Continuous HEAD                  All times    "4 93 75"
PMAP_1_93_54                              Continuous HEAD                  All times    "4 94 55"
PMAP_1_142_65                             Continuous HEAD                  All times    "4 143 66"
PMAP_1_102_23                             Continuous HEAD                  All times    "4 103 24"
PMAP_1_140_45                             Continuous HEAD                  All times    "4 141 46"
PMAP_1_88_90                              Continuous HEAD                  All times    "4 89 91"
PMAP_1_146_79                             Continuous HEAD                  All times    "4 147 80"
PMAP_1_137_101                            Continuous HEAD                  All times    "4 138 102"
PMAP_1_90_121                             Continuous HEAD                  All times    "4 91 122"
PMAP_1_124_71                             Continuous HEAD                  All times    "4 125 72"
PMAP_1_145_130                            Continuous HEAD                  All times    "4 146 131"
PMAP_1_53_113                             Continuous HEAD                  All times    "4 54 114"
PMAP_1_108_99                             Continuous HEAD                  All times    "4 109 100"
PMAP_1_160_112                            Continuous HEAD                  All times    "4 161 113"
PMAP_1_59_120                             Continuous HEAD                  All times    "4 60 121"
PMAP_1_137_104                            Continuous HEAD                  All times    "4 138 105"
PMAP_1_144_88                             Continuous HEAD                  All times    "4 145 89"
PMAP_1_119_59                             Continuous HEAD                  All times    "4 120 60"
PMAP_1_40_113                             Continuous HEAD                  All times    "4 41 114"
PMAP_1_55_111                             Continuous HEAD                  All times    "4 56 112"
PMAP_1_92_63                              Continuous HEAD                  All times    "4 93 64"
PMAP_1_137_79                             Continuous HEAD                  All times    "4 138 80"
PMAP_1_60_106                             Continuous HEAD                  All times    "4 61 107"
PMAP_1_128_52                             Continuous HEAD                  All times    "4 129 53"
PMAP_1_157_99                             Continuous HEAD                  All times    "4 158 100"
PMAP_1_124_123                            Continuous HEAD                  All times    "4 125 124"
PMAP_1_79_114                             Continuous HEAD                  All times    "4 80 115"
PMAP_1_124_64                             Continuous HEAD                  All times    "4 125 65"
PMAP_1_156_57                             Continuous HEAD                  All times    "4 157 58"
PMAP_1_106_77                             Continuous HEAD                  All times    "4 107 78"
PMAP_1_46_109                             Continuous HEAD                  All times    "4 47 110"
PMAP_1_48_108                             Continuous HEAD                  All times    "4 49 109"
PMAP_1_110_16                             Continuous HEAD                  All times    "4 111 17"
PMAP_1_30_121                             Continuous HEAD                  All times    "4 31 122"
PMAP_1_87_92                              Continuous HEAD                  All times    "4 88 93"
PMAP_1_134_119                            Continuous HEAD                  All times    "4 135 120"
PMAP_1_97_109                             Continuous HEAD                  All times    "4 98 110"
PMAP_1_157_116                            Continuous HEAD                  All times    "4 158 117"
PMAP_1_55_121                             Continuous HEAD                  All times    "4 56 122"
PMAP_1_120_67                             Continuous HEAD                  All times    "4 121 68"
PMAP_1_159_120                            Continuous HEAD                  All times    "4 160 121"
PMAP_1_107_74                             Continuous HEAD                  All times    "4 108 75"
PMAP_1_141_46                             Continuous HEAD                  All times    "4 142 47"
PMAP_1_146_65                             Continuous HEAD                  All times    "4 147 66"
PMAP_1_41_114                             Continuous HEAD                  All times    "4 42 115"
PMAP_1_124_97                             Continuous HEAD                  All times    "4 125 98"
PMAP_1_125_79                             Continuous HEAD                  All times    "4 126 80"
PMAP_1_124_103                            Continuous HEAD                  All times    "4 125 104"
PMAP_1_41_109                             Continuous HEAD                  All times    "4 42 110"
PMAP_1_147_89                             Continuous HEAD                  All times    "4 148 90"
PMAP_1_77_112                             Continuous HEAD                  All times    "4 78 113"
PMAP_1_45_118                             Continuous HEAD                  All times    "4 46 119"
PMAP_1_71_106                             Continuous HEAD                  All times    "4 72 107"
PMAP_1_137_60                             Continuous HEAD                  All times    "4 138 61"
PMAP_1_110_88                             Continuous HEAD                  All times    "4 111 89"
PMAP_1_147_119                            Continuous HEAD                  All times    "4 148 120"
PMAP_1_98_86                              Continuous HEAD                  All times    "4 99 87"
PMAP_1_137_117                            Continuous HEAD                  All times    "4 138 118"
PMAP_1_107_111                            Continuous HEAD                  All times    "4 108 112"
PMAP_1_97_106                             Continuous HEAD                  All times    "4 98 107"
PMAP_1_154_111                            Continuous HEAD                  All times    "4 155 112"
PMAP_1_119_101                            Continuous HEAD                  All times    "4 120 102"
PMAP_1_95_59                              Continuous HEAD                  All times    "4 96 60"
PMAP_1_104_63                             Continuous HEAD                  All times    "4 105 64"
PMAP_1_152_75                             Continuous HEAD                  All times    "4 153 76"
PMAP_1_109_40                             Continuous HEAD                  All times    "4 110 41"
PMAP_1_135_87                             Continuous HEAD                  All times    "4 136 88"
PMAP_1_59_116                             Continuous HEAD                  All times    "4 60 117"
PMAP_1_156_131                            Continuous HEAD                  All times    "4 157 132"
PMAP_1_82_91                              Continuous HEAD                  All times    "4 83 92"
PMAP_1_154_99                             Continuous HEAD                  All times    "4 155 100"
PMAP_1_126_84                             Continuous HEAD                  All times    "4 127 85"
PMAP_1_69_93                              Continuous HEAD                  All times    "4 70 94"
PMAP_1_90_48                              Continuous HEAD                  All times    "4 91 49"
PMAP_1_113_40                             Continuous HEAD                  All times    "4 114 41"
PMAP_1_158_111                            Continuous HEAD                  All times    "4 159 112"
PMAP_1_149_65                             Continuous HEAD                  All times    "4 150 66"
PMAP_1_40_126                             Continuous HEAD                  All times    "4 41 127"
PMAP_1_104_19                             Continuous HEAD                  All times    "4 105 20"
PMAP_1_93_52                              Continuous HEAD                  All times    "4 94 53"
PMAP_1_87_66                              Continuous HEAD                  All times    "4 88 67"
PMAP_1_77_119                             Continuous HEAD                  All times    "4 78 120"
PMAP_1_76_90                              Continuous HEAD                  All times    "4 77 91"
PMAP_1_123_84                             Continuous HEAD                  All times    "4 124 85"
PMAP_1_40_124                             Continuous HEAD                  All times    "4 41 125"
PMAP_1_106_60                             Continuous HEAD                  All times    "4 107 61"
PMAP_1_131_49                             Continuous HEAD                  All times    "4 132 50"
PMAP_1_43_124                             Continuous HEAD                  All times    "4 44 125"
PMAP_1_111_102                            Continuous HEAD                  All times    "4 112 103"
PMAP_1_150_127                            Continuous HEAD                  All times    "4 151 128"
PMAP_1_77_104                             Continuous HEAD                  All times    "4 78 105"
PMAP_1_139_99                             Continuous HEAD                  All times    "4 140 100"
PMAP_1_59_95                              Continuous HEAD                  All times    "4 60 96"
PMAP_1_80_57                              Continuous HEAD                  All times    "4 81 58"
PMAP_1_107_109                            Continuous HEAD                  All times    "4 108 110"
PMAP_1_114_41                             Continuous HEAD                  All times    "4 115 42"
PMAP_1_83_75                              Continuous HEAD                  All times    "4 84 76"
PMAP_1_150_67                             Continuous HEAD                  All times    "4 151 68"
PMAP_1_151_59                             Continuous HEAD                  All times    "4 152 60"
PMAP_1_88_62                              Continuous HEAD                  All times    "4 89 63"
PMAP_1_112_99                             Continuous HEAD                  All times    "4 113 100"
PMAP_1_154_58                             Continuous HEAD                  All times    "4 155 59"
PMAP_1_158_66                             Continuous HEAD                  All times    "4 159 67"
PMAP_1_151_62                             Continuous HEAD                  All times    "4 152 63"
PMAP_1_62_76                              Continuous HEAD                  All times    "4 63 77"
PMAP_1_118_100                            Continuous HEAD                  All times    "4 119 101"
PMAP_1_94_79                              Continuous HEAD                  All times    "4 95 80"
PMAP_1_115_117                            Continuous HEAD                  All times    "4 116 118"
PMAP_1_35_129                             Continuous HEAD                  All times    "4 36 130"
PMAP_1_119_122                            Continuous HEAD                  All times    "4 120 123"
PMAP_1_110_55                             Continuous HEAD                  All times    "4 111 56"
PMAP_1_131_90                             Continuous HEAD                  All times    "4 132 91"
PMAP_1_50_110                             Continuous HEAD                  All times    "4 51 111"
PMAP_1_135_79                             Continuous HEAD                  All times    "4 136 80"
PMAP_1_98_70                              Continuous HEAD                  All times    "4 99 71"
PMAP_1_124_61                             Continuous HEAD                  All times    "4 125 62"
PMAP_1_112_58                             Continuous HEAD                  All times    "4 113 59"
PMAP_1_103_55                             Continuous HEAD                  All times    "4 104 56"
PMAP_1_133_125                            Continuous HEAD                  All times    "4 134 126"
PMAP_1_43_109                             Continuous HEAD                  All times    "4 44 110"
PMAP_1_119_41                             Continuous HEAD                  All times    "4 120 42"
PMAP_1_40_128                             Continuous HEAD                  All times    "4 41 129"
PMAP_1_113_77                             Continuous HEAD                  All times    "4 114 78"
PMAP_1_159_124                            Continuous HEAD                  All times    "4 160 125"
PMAP_1_74_119                             Continuous HEAD                  All times    "4 75 120"
PMAP_1_68_102                             Continuous HEAD                  All times    "4 69 103"
PMAP_1_122_117                            Continuous HEAD                  All times    "4 123 118"
PMAP_1_141_88                             Continuous HEAD                  All times    "4 142 89"
PMAP_1_83_128                             Continuous HEAD                  All times    "4 84 129"
PMAP_1_95_64                              Continuous HEAD                  All times    "4 96 65"
PMAP_1_133_51                             Continuous HEAD                  All times    "4 134 52"
PMAP_1_89_117                             Continuous HEAD                  All times    "4 90 118"
PMAP_1_68_109                             Continuous HEAD                  All times    "4 69 110"
PMAP_1_102_64                             Continuous HEAD                  All times    "4 103 65"
PMAP_1_87_80                              Continuous HEAD                  All times    "4 88 81"
PMAP_1_99_105                             Continuous HEAD                  All times    "4 100 106"
PMAP_1_95_104                             Continuous HEAD                  All times    "4 96 105"
PMAP_1_57_95                              Continuous HEAD                  All times    "4 58 96"
PMAP_1_126_85                             Continuous HEAD                  All times    "4 127 86"
PMAP_1_55_118                             Continuous HEAD                  All times    "4 56 119"
PMAP_1_88_66                              Continuous HEAD                  All times    "4 89 67"
PMAP_1_62_128                             Continuous HEAD                  All times    "4 63 129"
PMAP_1_60_108                             Continuous HEAD                  All times    "4 61 109"
PMAP_1_151_111                            Continuous HEAD                  All times    "4 152 112"
PMAP_1_156_107                            Continuous HEAD                  All times    "4 157 108"
PMAP_1_106_32                             Continuous HEAD                  All times    "4 107 33"
PMAP_1_77_81                              Continuous HEAD                  All times    "4 78 82"
PMAP_1_107_112                            Continuous HEAD                  All times    "4 108 113"
PMAP_1_45_114                             Continuous HEAD                  All times    "4 46 115"
PMAP_1_151_52                             Continuous HEAD                  All times    "4 152 53"
PMAP_1_120_125                            Continuous HEAD                  All times    "4 121 126"
PMAP_1_85_108                             Continuous HEAD                  All times    "4 86 109"
PMAP_1_67_118                             Continuous HEAD                  All times    "4 68 119"
PMAP_1_88_124                             Continuous HEAD                  All times    "4 89 125"
PMAP_1_107_15                             Continuous HEAD                  All times    "4 108 16"
PMAP_1_75_123                             Continuous HEAD                  All times    "4 76 124"
PMAP_1_104_16                             Continuous HEAD                  All times    "4 105 17"
PMAP_1_153_104                            Continuous HEAD                  All times    "4 154 105"
PMAP_1_164_62                             Continuous HEAD                  All times    "4 165 63"
PMAP_1_77_85                              Continuous HEAD                  All times    "4 78 86"
PMAP_1_83_65                              Continuous HEAD                  All times    "4 84 66"
PMAP_1_113_51                             Continuous HEAD                  All times    "4 114 52"
PMAP_1_79_87                              Continuous HEAD                  All times    "4 80 88"
PMAP_1_102_57                             Continuous HEAD                  All times    "4 103 58"
PMAP_1_149_74                             Continuous HEAD                  All times    "4 150 75"
PMAP_1_18_132                             Continuous HEAD                  All times    "4 19 133"
PMAP_1_118_45                             Continuous HEAD                  All times    "4 119 46"
PMAP_1_122_128                            Continuous HEAD                  All times    "4 123 129"
PMAP_1_54_94                              Continuous HEAD                  All times    "4 55 95"
PMAP_1_73_89                              Continuous HEAD                  All times    "4 74 90"
PMAP_1_116_57                             Continuous HEAD                  All times    "4 117 58"
PMAP_1_72_79                              Continuous HEAD                  All times    "4 73 80"
PMAP_1_57_117                             Continuous HEAD                  All times    "4 58 118"
PMAP_1_89_56                              Continuous HEAD                  All times    "4 90 57"
PMAP_1_89_69                              Continuous HEAD                  All times    "4 90 70"
PMAP_1_79_107                             Continuous HEAD                  All times    "4 80 108"
PMAP_1_99_123                             Continuous HEAD                  All times    "4 100 124"
PMAP_1_108_13                             Continuous HEAD                  All times    "4 109 14"
PMAP_1_106_38                             Continuous HEAD                  All times    "4 107 39"
PMAP_1_98_38                              Continuous HEAD                  All times    "4 99 39"
PMAP_1_95_59                              Continuous HEAD                  All times    "4 96 60"
PMAP_1_48_109                             Continuous HEAD                  All times    "4 49 110"
PMAP_1_94_87                              Continuous HEAD                  All times    "4 95 88"
PMAP_1_101_78                             Continuous HEAD                  All times    "4 102 79"
PMAP_1_87_103                             Continuous HEAD                  All times    "4 88 104"
    BINARY GRID INFORMATION WILL BE WRITTEN TO:
      UNIT NUMBER: 1034
      FILE NAME: C:\Users\emmal\Documents\GitHub\TM_Ludovic_Schorpp\codes_tests\PEST++inv\3D_test\master_glm\pest_3D_R.dis.grb

 OPENED C:\Users\emmal\Documents\GitHub\TM_Ludovic_Schorpp\codes_tests\PEST++inv\3D_test\master_glm\pest_3D_R.dis.grb
 FILE TYPE:DATA(BINARY)   UNIT 1034   STATUS:REPLACE             
 FORMAT:UNFORMATTED            ACCESS:STREAM              
 ACTION:READWRITE           

      THE LAST TIME STEP WILL BE PRINTED
      THE LAST TIME STEP WILL BE PRINTED
 PROCESSING OC OPTIONS
    BUDGET INFORMATION WILL BE WRITTEN TO:
      UNIT NUMBER: 1035
      FILE NAME: pest_3D_R.cbc

 OPENED pest_3D_R.cbc
 FILE TYPE:DATA(BINARY)   UNIT 1035   STATUS:REPLACE             
 FORMAT:UNFORMATTED            ACCESS:STREAM              
 ACTION:READWRITE           

    HEAD INFORMATION WILL BE WRITTEN TO:
      UNIT NUMBER: 1036
      FILE NAME: pest_3D_R.hds

 OPENED pest_3D_R.hds
 FILE TYPE:DATA(BINARY)   UNIT 1036   STATUS:REPLACE             
 FORMAT:UNFORMATTED            ACCESS:STREAM              
 ACTION:READWRITE           

 END OF OC OPTIONS

 BEGIN READING OUTPUT CONTROL FOR STRESS PERIOD 1
      THE LAST TIME STEP WILL BE SAVED
      THE LAST TIME STEP WILL BE SAVED
      ALL TIME STEPS WILL BE PRINTED

 END READING OUTPUT CONTROL FOR STRESS PERIOD 1

      LAYER OR NODE INDEX = 2

 OPENED irr.txt
 FILE TYPE:OPEN/CLOSE   UNIT 1037   STATUS:OLD                 
 FORMAT:FORMATTED              ACCESS:SEQUENTIAL          
 ACTION:READ                

 UBDSV1 SAVING     FLOW-JA-FACE ON UNIT   1035 AT TIME STEP      1, STRESS PERIOD      1
 UBDSV06 SAVING              WEL IN MODEL PEST_3D_R        PACKAGE PEST_3D_R       CONNECTED TO MODEL PEST_3D_R        PACKAGE WEL              ON UNIT   1035 AT TIME STEP      1, STRESS PERIOD      1
 UBDSV06 SAVING              WEL IN MODEL PEST_3D_R        PACKAGE PEST_3D_R       CONNECTED TO MODEL PEST_3D_R        PACKAGE CORB             ON UNIT   1035 AT TIME STEP      1, STRESS PERIOD      1
 UBDSV06 SAVING              DRN IN MODEL PEST_3D_R        PACKAGE PEST_3D_R       CONNECTED TO MODEL PEST_3D_R        PACKAGE ETA              ON UNIT   1035 AT TIME STEP      1, STRESS PERIOD      1
 UBDSV06 SAVING              RIV IN MODEL PEST_3D_R        PACKAGE PEST_3D_R       CONNECTED TO MODEL PEST_3D_R        PACKAGE AGLY             ON UNIT   1035 AT TIME STEP      1, STRESS PERIOD      1
 UBDSV06 SAVING              RIV IN MODEL PEST_3D_R        PACKAGE PEST_3D_R       CONNECTED TO MODEL PEST_3D_R        PACKAGE TET              ON UNIT   1035 AT TIME STEP      1, STRESS PERIOD      1
 UBDSV06 SAVING              RIV IN MODEL PEST_3D_R        PACKAGE PEST_3D_R       CONNECTED TO MODEL PEST_3D_R        PACKAGE REA              ON UNIT   1035 AT TIME STEP      1, STRESS PERIOD      1
 UBDSV06 SAVING              RIV IN MODEL PEST_3D_R        PACKAGE PEST_3D_R       CONNECTED TO MODEL PEST_3D_R        PACKAGE CANT             ON UNIT   1035 AT TIME STEP      1, STRESS PERIOD      1
 UBDSV06 SAVING              RIV IN MODEL PEST_3D_R        PACKAGE PEST_3D_R       CONNECTED TO MODEL PEST_3D_R        PACKAGE TECH             ON UNIT   1035 AT TIME STEP      1, STRESS PERIOD      1
 UBDSV06 SAVING              RIV IN MODEL PEST_3D_R        PACKAGE PEST_3D_R       CONNECTED TO MODEL PEST_3D_R        PACKAGE BOL              ON UNIT   1035 AT TIME STEP      1, STRESS PERIOD      1
 UBDSV06 SAVING              RCH IN MODEL PEST_3D_R        PACKAGE PEST_3D_R       CONNECTED TO MODEL PEST_3D_R        PACKAGE RCH              ON UNIT   1035 AT TIME STEP      1, STRESS PERIOD      1
 UBDSV06 SAVING              RCH IN MODEL PEST_3D_R        PACKAGE PEST_3D_R       CONNECTED TO MODEL PEST_3D_R        PACKAGE IRRIG            ON UNIT   1035 AT TIME STEP      1, STRESS PERIOD      1
 UBDSV06 SAVING              RCH IN MODEL PEST_3D_R        PACKAGE PEST_3D_R       CONNECTED TO MODEL PEST_3D_R        PACKAGE P_AGRI           ON UNIT   1035 AT TIME STEP      1, STRESS PERIOD      1
 UBDSV06 SAVING              CHD IN MODEL PEST_3D_R        PACKAGE PEST_3D_R       CONNECTED TO MODEL PEST_3D_R        PACKAGE SEA              ON UNIT   1035 AT TIME STEP      1, STRESS PERIOD      1
 UBDSV06 SAVING              CHD IN MODEL PEST_3D_R        PACKAGE PEST_3D_R       CONNECTED TO MODEL PEST_3D_R        PACKAGE THUIR            ON UNIT   1035 AT TIME STEP      1, STRESS PERIOD      1

 HEAD WILL BE SAVED ON UNIT 1036 AT END OF TIME STEP    1, STRESS PERIOD    1


  VOLUME BUDGET FOR ENTIRE MODEL AT END OF TIME STEP    1, STRESS PERIOD   1
  ---------------------------------------------------------------------------------------------------

     CUMULATIVE VOLUME      L**3       RATES FOR THIS TIME STEP      L**3/T          PACKAGE NAME    
     ------------------                 ------------------------                     ----------------

           IN:                                      IN:
           ---                                      ---
                 WEL =           0.0000                   WEL =           0.0000     WEL             
                 WEL =           0.2000                   WEL =           0.2000     CORB            
                 DRN =           0.0000                   DRN =           0.0000     ETA             
                 RIV =           0.1103                   RIV =           0.1103     AGLY            
                 RIV =       5.2356E-02                   RIV =       5.2356E-02     TET             
                 RIV =           0.4471                   RIV =           0.4471     REA             
                 RIV =       4.2235E-02                   RIV =       4.2235E-02     CANT            
                 RIV =           0.1861                   RIV =           0.1861     TECH            
                 RIV =       5.3130E-02                   RIV =       5.3130E-02     BOL             
                 RCH =           3.1380                   RCH =           3.1380     RCH             
                 RCH =           0.7930                   RCH =           0.7930     IRRIG           
                 RCH =           0.0000                   RCH =           0.0000     P_AGRI          
                 CHD =          27.1628                   CHD =          27.1628     SEA             
                 CHD =           0.1012                   CHD =           0.1012     THUIR           

            TOTAL IN =          32.2862              TOTAL IN =          32.2862

          OUT:                                     OUT:
          ----                                     ----
                 WEL =           1.3716                   WEL =           1.3716     WEL             
                 WEL =           0.0000                   WEL =           0.0000     CORB            
                 DRN =           0.9656                   DRN =           0.9656     ETA             
                 RIV =           0.2445                   RIV =           0.2445     AGLY            
                 RIV =           0.5018                   RIV =           0.5018     TET             
                 RIV =       9.3442E-02                   RIV =       9.3442E-02     REA             
                 RIV =       2.4871E-02                   RIV =       2.4871E-02     CANT            
                 RIV =           0.3139                   RIV =           0.3139     TECH            
                 RIV =       2.8582E-02                   RIV =       2.8582E-02     BOL             
                 RCH =           0.0000                   RCH =           0.0000     RCH             
                 RCH =           0.0000                   RCH =           0.0000     IRRIG           
                 RCH =           0.6852                   RCH =           0.6852     P_AGRI          
                 CHD =          27.9923                   CHD =          27.9923     SEA             
                 CHD =       6.4238E-02                   CHD =       6.4238E-02     THUIR           

           TOTAL OUT =          32.2859             TOTAL OUT =          32.2859

            IN - OUT =       3.3520E-04              IN - OUT =       3.3520E-04

 PERCENT DISCREPANCY =           0.00     PERCENT DISCREPANCY =           0.00




         TIME SUMMARY AT END OF TIME STEP    1 IN STRESS PERIOD    1
                    SECONDS     MINUTES      HOURS       DAYS        YEARS
                    -----------------------------------------------------------
   TIME STEP LENGTH  1.0000     1.66667E-02 2.77778E-04 1.15741E-05 3.16881E-08
 STRESS PERIOD TIME  1.0000     1.66667E-02 2.77778E-04 1.15741E-05 3.16881E-08
         TOTAL TIME  1.0000     1.66667E-02 2.77778E-04 1.15741E-05 3.16881E-08
