                                   MODFLOW 6
                U.S. GEOLOGICAL SURVEY MODULAR HYDROLOGIC MODEL
                            VERSION 6.0.4 03/13/2019

   MODFLOW 6 compiled Mar 21 2019 15:37:31 with IFORT compiler (ver. 19.0.0)

This software has been approved for release by the U.S. Geological 
Survey (USGS). Although the software has been subjected to rigorous 
review, the USGS reserves the right to update the software as needed 
pursuant to further analysis and review. No warranty, expressed or 
implied, is made by the USGS or the U.S. Government as to the 
functionality of the software and related material nor shall the 
fact of release constitute any such warranty. Furthermore, the 
software is released on condition that neither the USGS nor the U.S. 
Government shall be held liable for any damages resulting from its 
authorized or unauthorized use. Also refer to the USGS Water 
Resources Software User Rights Notice for complete use, copyright, 
and distribution information.


System command used to initiate simulation:
../../exe/mf6

MODFLOW was compiled using uniform precision.
Real Variables
  PRECISION: 15
  KIND: 8
  TINY (smallest non-zero value):    2.225074-308
  HUGE (largest value):    1.797693+308
Integer Variables
  KIND: 4
  HUGE (largest value): 2147483647
  BIT_SIZE: 32
 

 OPENED mfsim.nam
 FILE TYPE:NAM   UNIT 1001   STATUS:OLD                 
 FORMAT:FORMATTED              ACCESS:SEQUENTIAL          
 ACTION:READ                


 READING SIMULATION OPTIONS
 END OF SIMULATION OPTIONS

 READING SIMULATION TIMING

 OPENED first2D_mf6.tdis
 FILE TYPE:TDIS   UNIT 1002   STATUS:OLD                 
 FORMAT:FORMATTED              ACCESS:SEQUENTIAL          
 ACTION:READ                


 TDIS -- TEMPORAL DISCRETIZATION PACKAGE,
 VERSION 1 : 11/13/2014 - INPUT READ FROM UNIT 1002
 PROCESSING TDIS OPTIONS
    SIMULATION TIME UNIT IS SECONDS
 END OF TDIS OPTIONS
 PROCESSING TDIS DIMENSIONS
   24 STRESS PERIOD(S) IN SIMULATION
 END OF TDIS DIMENSIONS
 PROCESSING TDIS PERIODDATA


 STRESS PERIOD     LENGTH       TIME STEPS     MULTIPLIER FOR DELT
 ----------------------------------------------------------------------------
        1         1.000000          1                    1.000
        2         2592000.         10                    1.000
        3         2592000.         10                    1.000
        4         2592000.         10                    1.000
        5         2592000.         10                    1.000
        6         2592000.         10                    1.000
        7         2592000.         10                    1.000
        8         2592000.         10                    1.000
        9         2592000.         10                    1.000
       10         2592000.         10                    1.000
       11         2592000.         10                    1.000
       12         2592000.         10                    1.000
       13         2592000.         10                    1.000
       14         2592000.         10                    1.000
       15         2592000.         10                    1.000
       16         2592000.         10                    1.000
       17         2592000.         10                    1.000
       18         2592000.         10                    1.000
       19         2592000.         10                    1.000
       20         2592000.         10                    1.000
       21         2592000.         10                    1.000
       22         2592000.         10                    1.000
       23         2592000.         10                    1.000
       24         2592000.         10                    1.000
 END OF TDIS PERIODDATA
 END OF SIMULATION TIMING

 READING SIMULATION MODELS
    GWF6 model 2D_TRANS will be created as model 1
 END OF SIMULATION MODELS

 READING SIMULATION EXCHANGES
 END OF SIMULATION EXCHANGES

 READING SOLUTIONGROUP

 Creating solution: SLN_1           

 OPENED first2D_mf6.ims
 FILE TYPE:IMS   UNIT 1020   STATUS:OLD                 
 FORMAT:FORMATTED              ACCESS:SEQUENTIAL          
 ACTION:READ                

 END OF SIMULATION SOLUTIONGROUP

 IMS -- ITERATIVE MODEL SOLUTION PACKAGE, VERSION 6, 4/28/2017
         INPUT READ FROM UNIT 1020

 PROCESSING IMS OPTIONS
 MODERATE OPTION:
 DEFAULT SOLVER INPUT VALUES REFLECT MODERETELY NONLINEAR MODEL
 END OF IMS OPTIONS
 **UNDER-RELAXATION WILL BE USED***
 
 ***IMS LINEAR SOLVER WILL BE USED***

 IMSLINEAR -- UNSTRUCTURED LINEAR SOLUTION PACKAGE, VERSION 8, 04/28/2017
 
 OUTER ITERATION CONVERGENCE CRITERION     (HCLOSE) =    0.100000E-01
 OUTER ITERATION BOUNDARY FLOW RESIDUAL (RCLOSEBND) =    0.100000E+00
 MAXIMUM NUMBER OF OUTER ITERATIONS        (MXITER) =        50
 SOLVER PRINTOUT INDEX                     (IPRIMS) =         1
 NONLINEAR ITERATION METHOD            (NONLINMETH) =         3
 LINEAR SOLUTION METHOD                   (LINMETH) =         1
 UNDER-RELAXATION WEIGHT REDUCTION FACTOR   (THETA) =    0.900000E+00
 UNDER-RELAXATION WEIGHT INCREASE INCREMENT (KAPPA) =    0.100000E-03
 UNDER-RELAXATION PREVIOUS HISTORY FACTOR   (GAMMA) =    0.000000E+00
 UNDER-RELAXATIONMOMENTUM TERM          (AMOMENTUM) =    0.000000E+00
    MAXIMUM NUMBER OF BACKTRACKS         (NUMTRACK) =         0

       SOLUTION BY THE BICONJUGATE-GRADIENT STABILIZED METHOD
 ------------------------------------------------------------------
 MAXIMUM OF     50 CALLS OF SOLUTION ROUTINE
 MAXIMUM OF    100 INTERNAL ITERATIONS PER CALL TO SOLUTION ROUTINE
 LINEAR ACCELERATION METHOD            = BCGS      
 MATRIX PRECONDITIONING TYPE           = MOD. INCOMPLETE LU  
 MATRIX SCALING APPROACH               = NO SCALING          
 MATRIX REORDERING APPROACH            = ORIGINAL ORDERING        
 NUMBER OF ORTHOGONALIZATIONS          =        0
 HEAD CHANGE CRITERION FOR CLOSURE     =    0.10000E-01
 RESIDUAL CHANGE CRITERION FOR CLOSURE =    0.10000E+00
 RESIDUAL CONVERGENCE OPTION           =        0
 RESIDUAL CONVERGENCE NORM             = INFINITY NORM   
 RELAXATION FACTOR                     =    0.97000E+00



1
                            STRESS PERIOD NO.    1, LENGTH =   1.000000    
                            -----------------------------------------------

                              NUMBER OF TIME STEPS =     1

                               MULTIPLIER FOR DELT =     1.000

                            INITIAL TIME STEP SIZE =   1.000000    


 OUTER ITERATION SUMMARY
 ---------------------------------------------------------------------------------------
                       OUTER     INNER         MAXIMUM                    MAXIMUM CHANGE
                   ITERATION ITERATION          CHANGE                    MODEL-(CELLID)
 ---------------------------------------------------------------------------------------
 Linear Solver             1        29     284.698                     1_GWF-(1,109,143)
 Under-relaxation          1               284.698                     1_GWF-(1,109,143)
 Linear Solver             2         1    2.015147E-04                   1_GWF-(1,72,71)

 2 CALLS TO NUMERICAL SOLUTION IN TIME STEP 1 STRESS PERIOD 1
 30 TOTAL ITERATIONS
1
                            STRESS PERIOD NO.    2, LENGTH =   2592000.    
                            -----------------------------------------------

                              NUMBER OF TIME STEPS =    10

                               MULTIPLIER FOR DELT =     1.000

                            INITIAL TIME STEP SIZE =   259200.0    


 OUTER ITERATION SUMMARY
 ---------------------------------------------------------------------------------------
                       OUTER     INNER         MAXIMUM                    MAXIMUM CHANGE
                   ITERATION ITERATION          CHANGE                    MODEL-(CELLID)
 ---------------------------------------------------------------------------------------
 Linear Solver             1         4    0.235390                      1_GWF-(1,152,81)
 Under-relaxation          1              0.235390                      1_GWF-(1,152,81)
 Linear Solver             2         1   -2.590479E-03                  1_GWF-(1,151,79)

 2 CALLS TO NUMERICAL SOLUTION IN TIME STEP 1 STRESS PERIOD 2
 5 TOTAL ITERATIONS


 OUTER ITERATION SUMMARY
 ---------------------------------------------------------------------------------------
                       OUTER     INNER         MAXIMUM                    MAXIMUM CHANGE
                   ITERATION ITERATION          CHANGE                    MODEL-(CELLID)
 ---------------------------------------------------------------------------------------
 Linear Solver             1         2    6.887873E-02                  1_GWF-(1,47,111)
 Under-relaxation          1              6.887873E-02                  1_GWF-(1,47,111)
 Linear Solver             2         1    4.396555E-03                  1_GWF-(1,61,114)

 2 CALLS TO NUMERICAL SOLUTION IN TIME STEP 2 STRESS PERIOD 2
 3 TOTAL ITERATIONS


 OUTER ITERATION SUMMARY
 ---------------------------------------------------------------------------------------
                       OUTER     INNER         MAXIMUM                    MAXIMUM CHANGE
                   ITERATION ITERATION          CHANGE                    MODEL-(CELLID)
 ---------------------------------------------------------------------------------------
 Linear Solver             1         2    5.628224E-02                  1_GWF-(1,47,112)
 Under-relaxation          1              5.628224E-02                  1_GWF-(1,47,112)
 Linear Solver             2         2    1.279572E-02                  1_GWF-(1,45,107)
 Under-relaxation          2              1.279572E-02                  1_GWF-(1,45,107)
 Linear Solver             3         1    1.029208E-04                  1_GWF-(1,109,17)

 3 CALLS TO NUMERICAL SOLUTION IN TIME STEP 3 STRESS PERIOD 2
 5 TOTAL ITERATIONS


 OUTER ITERATION SUMMARY
 ---------------------------------------------------------------------------------------
                       OUTER     INNER         MAXIMUM                    MAXIMUM CHANGE
                   ITERATION ITERATION          CHANGE                    MODEL-(CELLID)
 ---------------------------------------------------------------------------------------
 Linear Solver             1         2    8.533443E-02                  1_GWF-(1,45,107)
 Under-relaxation          1              8.533443E-02                  1_GWF-(1,45,107)
 Linear Solver             2         1   -2.709984E-03                  1_GWF-(1,150,79)

 2 CALLS TO NUMERICAL SOLUTION IN TIME STEP 4 STRESS PERIOD 2
 3 TOTAL ITERATIONS


 OUTER ITERATION SUMMARY
 ---------------------------------------------------------------------------------------
                       OUTER     INNER         MAXIMUM                    MAXIMUM CHANGE
                   ITERATION ITERATION          CHANGE                    MODEL-(CELLID)
 ---------------------------------------------------------------------------------------
 Linear Solver             1         2    3.992033E-02                  1_GWF-(1,46,110)
 Under-relaxation          1              3.992033E-02                  1_GWF-(1,46,110)
 Linear Solver             2         1   -2.604579E-03                  1_GWF-(1,150,79)

 2 CALLS TO NUMERICAL SOLUTION IN TIME STEP 5 STRESS PERIOD 2
 3 TOTAL ITERATIONS


 OUTER ITERATION SUMMARY
 ---------------------------------------------------------------------------------------
                       OUTER     INNER         MAXIMUM                    MAXIMUM CHANGE
                   ITERATION ITERATION          CHANGE                    MODEL-(CELLID)
 ---------------------------------------------------------------------------------------
 Linear Solver             1         2    3.395564E-02                  1_GWF-(1,46,110)
 Under-relaxation          1              3.395564E-02                  1_GWF-(1,46,110)
 Linear Solver             2         1   -2.537813E-03                  1_GWF-(1,150,79)

 2 CALLS TO NUMERICAL SOLUTION IN TIME STEP 6 STRESS PERIOD 2
 3 TOTAL ITERATIONS


 OUTER ITERATION SUMMARY
 ---------------------------------------------------------------------------------------
                       OUTER     INNER         MAXIMUM                    MAXIMUM CHANGE
                   ITERATION ITERATION          CHANGE                    MODEL-(CELLID)
 ---------------------------------------------------------------------------------------
 Linear Solver             1         2    3.119112E-02                  1_GWF-(1,41,110)
 Under-relaxation          1              3.119112E-02                  1_GWF-(1,41,110)
 Linear Solver             2         1   -2.463890E-03                  1_GWF-(1,150,79)

 2 CALLS TO NUMERICAL SOLUTION IN TIME STEP 7 STRESS PERIOD 2
 3 TOTAL ITERATIONS


 OUTER ITERATION SUMMARY
 ---------------------------------------------------------------------------------------
                       OUTER     INNER         MAXIMUM                    MAXIMUM CHANGE
                   ITERATION ITERATION          CHANGE                    MODEL-(CELLID)
 ---------------------------------------------------------------------------------------
 Linear Solver             1         2    2.934292E-02                  1_GWF-(1,41,110)
 Under-relaxation          1              2.934292E-02                  1_GWF-(1,41,110)
 Linear Solver             2         1    3.268006E-03                  1_GWF-(1,118,85)

 2 CALLS TO NUMERICAL SOLUTION IN TIME STEP 8 STRESS PERIOD 2
 3 TOTAL ITERATIONS


 OUTER ITERATION SUMMARY
 ---------------------------------------------------------------------------------------
                       OUTER     INNER         MAXIMUM                    MAXIMUM CHANGE
                   ITERATION ITERATION          CHANGE                    MODEL-(CELLID)
 ---------------------------------------------------------------------------------------
 Linear Solver             1         2    2.753549E-02                  1_GWF-(1,41,110)
 Under-relaxation          1              2.753549E-02                  1_GWF-(1,41,110)
 Linear Solver             2         1   -2.320612E-03                  1_GWF-(1,150,79)

 2 CALLS TO NUMERICAL SOLUTION IN TIME STEP 9 STRESS PERIOD 2
 3 TOTAL ITERATIONS


 OUTER ITERATION SUMMARY
 ---------------------------------------------------------------------------------------
                       OUTER     INNER         MAXIMUM                    MAXIMUM CHANGE
                   ITERATION ITERATION          CHANGE                    MODEL-(CELLID)
 ---------------------------------------------------------------------------------------
 Linear Solver             1         2    2.595926E-02                  1_GWF-(1,39,111)
 Under-relaxation          1              2.595926E-02                  1_GWF-(1,39,111)
 Linear Solver             2         1   -2.276268E-03                  1_GWF-(1,151,79)

 2 CALLS TO NUMERICAL SOLUTION IN TIME STEP 10 STRESS PERIOD 2
 3 TOTAL ITERATIONS
1
                            STRESS PERIOD NO.    3, LENGTH =   2592000.    
                            -----------------------------------------------

                              NUMBER OF TIME STEPS =    10

                               MULTIPLIER FOR DELT =     1.000

                            INITIAL TIME STEP SIZE =   259200.0    


 OUTER ITERATION SUMMARY
 ---------------------------------------------------------------------------------------
                       OUTER     INNER         MAXIMUM                    MAXIMUM CHANGE
                   ITERATION ITERATION          CHANGE                    MODEL-(CELLID)
 ---------------------------------------------------------------------------------------
 Linear Solver             1         4   -0.502299                      1_GWF-(1,152,81)
 Under-relaxation          1             -0.502299                      1_GWF-(1,152,81)
 Linear Solver             2         1    5.975651E-03                  1_GWF-(1,118,85)

 2 CALLS TO NUMERICAL SOLUTION IN TIME STEP 1 STRESS PERIOD 3
 5 TOTAL ITERATIONS


 OUTER ITERATION SUMMARY
 ---------------------------------------------------------------------------------------
                       OUTER     INNER         MAXIMUM                    MAXIMUM CHANGE
                   ITERATION ITERATION          CHANGE                    MODEL-(CELLID)
 ---------------------------------------------------------------------------------------
 Linear Solver             1         2   -0.137055                      1_GWF-(1,47,111)
 Under-relaxation          1             -0.137055                      1_GWF-(1,47,111)
 Linear Solver             2         1    9.637179E-03                  1_GWF-(1,60,112)

 2 CALLS TO NUMERICAL SOLUTION IN TIME STEP 2 STRESS PERIOD 3
 3 TOTAL ITERATIONS


 OUTER ITERATION SUMMARY
 ---------------------------------------------------------------------------------------
                       OUTER     INNER         MAXIMUM                    MAXIMUM CHANGE
                   ITERATION ITERATION          CHANGE                    MODEL-(CELLID)
 ---------------------------------------------------------------------------------------
 Linear Solver             1         2   -0.110421                      1_GWF-(1,47,112)
 Under-relaxation          1             -0.110421                      1_GWF-(1,47,112)
 Linear Solver             2         1    3.898905E-03                  1_GWF-(1,150,79)

 2 CALLS TO NUMERICAL SOLUTION IN TIME STEP 3 STRESS PERIOD 3
 3 TOTAL ITERATIONS


 OUTER ITERATION SUMMARY
 ---------------------------------------------------------------------------------------
                       OUTER     INNER         MAXIMUM                    MAXIMUM CHANGE
                   ITERATION ITERATION          CHANGE                    MODEL-(CELLID)
 ---------------------------------------------------------------------------------------
 Linear Solver             1         2   -8.985663E-02                  1_GWF-(1,47,112)
 Under-relaxation          1             -8.985663E-02                  1_GWF-(1,47,112)
 Linear Solver             2         2    2.593731E-02                  1_GWF-(1,45,107)
 Under-relaxation          2              2.334358E-02                  1_GWF-(1,45,107)
 Linear Solver             3         1    2.075481E-03                  1_GWF-(1,45,107)

 3 CALLS TO NUMERICAL SOLUTION IN TIME STEP 4 STRESS PERIOD 3
 5 TOTAL ITERATIONS


 OUTER ITERATION SUMMARY
 ---------------------------------------------------------------------------------------
                       OUTER     INNER         MAXIMUM                    MAXIMUM CHANGE
                   ITERATION ITERATION          CHANGE                    MODEL-(CELLID)
 ---------------------------------------------------------------------------------------
 Linear Solver             1         2   -7.333043E-02                  1_GWF-(1,48,112)
 Under-relaxation          1             -7.333043E-02                  1_GWF-(1,48,112)
 Linear Solver             2         1    3.754477E-03                  1_GWF-(1,150,79)

 2 CALLS TO NUMERICAL SOLUTION IN TIME STEP 5 STRESS PERIOD 3
 3 TOTAL ITERATIONS


 OUTER ITERATION SUMMARY
 ---------------------------------------------------------------------------------------
                       OUTER     INNER         MAXIMUM                    MAXIMUM CHANGE
                   ITERATION ITERATION          CHANGE                    MODEL-(CELLID)
 ---------------------------------------------------------------------------------------
 Linear Solver             1         2   -6.086645E-02                  1_GWF-(1,47,112)
 Under-relaxation          1             -6.086645E-02                  1_GWF-(1,47,112)
 Linear Solver             2         1    3.637510E-03                  1_GWF-(1,150,79)

 2 CALLS TO NUMERICAL SOLUTION IN TIME STEP 6 STRESS PERIOD 3
 3 TOTAL ITERATIONS


 OUTER ITERATION SUMMARY
 ---------------------------------------------------------------------------------------
                       OUTER     INNER         MAXIMUM                    MAXIMUM CHANGE
                   ITERATION ITERATION          CHANGE                    MODEL-(CELLID)
 ---------------------------------------------------------------------------------------
 Linear Solver             1         2   -5.112444E-02                  1_GWF-(1,41,110)
 Under-relaxation          1             -5.112444E-02                  1_GWF-(1,41,110)
 Linear Solver             2         1    3.521089E-03                  1_GWF-(1,150,79)

 2 CALLS TO NUMERICAL SOLUTION IN TIME STEP 7 STRESS PERIOD 3
 3 TOTAL ITERATIONS


 OUTER ITERATION SUMMARY
 ---------------------------------------------------------------------------------------
                       OUTER     INNER         MAXIMUM                    MAXIMUM CHANGE
                   ITERATION ITERATION          CHANGE                    MODEL-(CELLID)
 ---------------------------------------------------------------------------------------
 Linear Solver             1         2   -4.772328E-02                  1_GWF-(1,41,110)
 Under-relaxation          1             -4.772328E-02                  1_GWF-(1,41,110)
 Linear Solver             2         1    3.403567E-03                  1_GWF-(1,150,79)

 2 CALLS TO NUMERICAL SOLUTION IN TIME STEP 8 STRESS PERIOD 3
 3 TOTAL ITERATIONS


 OUTER ITERATION SUMMARY
 ---------------------------------------------------------------------------------------
                       OUTER     INNER         MAXIMUM                    MAXIMUM CHANGE
                   ITERATION ITERATION          CHANGE                    MODEL-(CELLID)
 ---------------------------------------------------------------------------------------
 Linear Solver             1         2   -4.475192E-02                  1_GWF-(1,39,111)
 Under-relaxation          1             -4.475192E-02                  1_GWF-(1,39,111)
 Linear Solver             2         1    3.290955E-03                  1_GWF-(1,150,79)

 2 CALLS TO NUMERICAL SOLUTION IN TIME STEP 9 STRESS PERIOD 3
 3 TOTAL ITERATIONS


 OUTER ITERATION SUMMARY
 ---------------------------------------------------------------------------------------
                       OUTER     INNER         MAXIMUM                    MAXIMUM CHANGE
                   ITERATION ITERATION          CHANGE                    MODEL-(CELLID)
 ---------------------------------------------------------------------------------------
 Linear Solver             1         2   -4.235260E-02                  1_GWF-(1,39,111)
 Under-relaxation          1             -4.235260E-02                  1_GWF-(1,39,111)
 Linear Solver             2         1    3.165449E-03                  1_GWF-(1,150,79)

 2 CALLS TO NUMERICAL SOLUTION IN TIME STEP 10 STRESS PERIOD 3
 3 TOTAL ITERATIONS
1
                            STRESS PERIOD NO.    4, LENGTH =   2592000.    
                            -----------------------------------------------

                              NUMBER OF TIME STEPS =    10

                               MULTIPLIER FOR DELT =     1.000

                            INITIAL TIME STEP SIZE =   259200.0    


 OUTER ITERATION SUMMARY
 ---------------------------------------------------------------------------------------
                       OUTER     INNER         MAXIMUM                    MAXIMUM CHANGE
                   ITERATION ITERATION          CHANGE                    MODEL-(CELLID)
 ---------------------------------------------------------------------------------------
 Linear Solver             1         2   -0.174308                      1_GWF-(1,152,81)
 Under-relaxation          1             -0.174308                      1_GWF-(1,152,81)
 Linear Solver             2         2    2.547904E-02                  1_GWF-(1,154,85)
 Under-relaxation          2              2.293114E-02                  1_GWF-(1,154,85)
 Linear Solver             3         1    5.958124E-04                  1_GWF-(1,154,85)

 3 CALLS TO NUMERICAL SOLUTION IN TIME STEP 1 STRESS PERIOD 4
 5 TOTAL ITERATIONS


 OUTER ITERATION SUMMARY
 ---------------------------------------------------------------------------------------
                       OUTER     INNER         MAXIMUM                    MAXIMUM CHANGE
                   ITERATION ITERATION          CHANGE                    MODEL-(CELLID)
 ---------------------------------------------------------------------------------------
 Linear Solver             1         2   -7.052983E-02                  1_GWF-(1,46,111)
 Under-relaxation          1             -7.052983E-02                  1_GWF-(1,46,111)
 Linear Solver             2         1    4.739344E-03                  1_GWF-(1,150,79)

 2 CALLS TO NUMERICAL SOLUTION IN TIME STEP 2 STRESS PERIOD 4
 3 TOTAL ITERATIONS


 OUTER ITERATION SUMMARY
 ---------------------------------------------------------------------------------------
                       OUTER     INNER         MAXIMUM                    MAXIMUM CHANGE
                   ITERATION ITERATION          CHANGE                    MODEL-(CELLID)
 ---------------------------------------------------------------------------------------
 Linear Solver             1         2   -5.969938E-02                  1_GWF-(1,46,111)
 Under-relaxation          1             -5.969938E-02                  1_GWF-(1,46,111)
 Linear Solver             2         1    4.692082E-03                  1_GWF-(1,150,79)

 2 CALLS TO NUMERICAL SOLUTION IN TIME STEP 3 STRESS PERIOD 4
 3 TOTAL ITERATIONS


 OUTER ITERATION SUMMARY
 ---------------------------------------------------------------------------------------
                       OUTER     INNER         MAXIMUM                    MAXIMUM CHANGE
                   ITERATION ITERATION          CHANGE                    MODEL-(CELLID)
 ---------------------------------------------------------------------------------------
 Linear Solver             1         2   -5.369090E-02                  1_GWF-(1,41,110)
 Under-relaxation          1             -5.369090E-02                  1_GWF-(1,41,110)
 Linear Solver             2         2    1.728654E-02                  1_GWF-(1,151,80)
 Under-relaxation          2              1.555789E-02                  1_GWF-(1,151,80)
 Linear Solver             3         1   -2.868518E-04                  1_GWF-(1,151,80)

 3 CALLS TO NUMERICAL SOLUTION IN TIME STEP 4 STRESS PERIOD 4
 5 TOTAL ITERATIONS


 OUTER ITERATION SUMMARY
 ---------------------------------------------------------------------------------------
                       OUTER     INNER         MAXIMUM                    MAXIMUM CHANGE
                   ITERATION ITERATION          CHANGE                    MODEL-(CELLID)
 ---------------------------------------------------------------------------------------
 Linear Solver             1         2   -5.143610E-02                  1_GWF-(1,39,111)
 Under-relaxation          1             -5.143610E-02                  1_GWF-(1,39,111)
 Linear Solver             2         2   -2.061411E-02                  1_GWF-(1,164,78)
 Under-relaxation          2             -2.061411E-02                  1_GWF-(1,164,78)
 Linear Solver             3         1   -1.488235E-04                  1_GWF-(1,110,15)

 3 CALLS TO NUMERICAL SOLUTION IN TIME STEP 5 STRESS PERIOD 4
 5 TOTAL ITERATIONS


 OUTER ITERATION SUMMARY
 ---------------------------------------------------------------------------------------
                       OUTER     INNER         MAXIMUM                    MAXIMUM CHANGE
                   ITERATION ITERATION          CHANGE                    MODEL-(CELLID)
 ---------------------------------------------------------------------------------------
 Linear Solver             1         2   -4.896905E-02                  1_GWF-(1,39,111)
 Under-relaxation          1             -4.896905E-02                  1_GWF-(1,39,111)
 Linear Solver             2         1    4.190520E-03                  1_GWF-(1,150,79)

 2 CALLS TO NUMERICAL SOLUTION IN TIME STEP 6 STRESS PERIOD 4
 3 TOTAL ITERATIONS


 OUTER ITERATION SUMMARY
 ---------------------------------------------------------------------------------------
                       OUTER     INNER         MAXIMUM                    MAXIMUM CHANGE
                   ITERATION ITERATION          CHANGE                    MODEL-(CELLID)
 ---------------------------------------------------------------------------------------
 Linear Solver             1         2   -4.638271E-02                  1_GWF-(1,39,111)
 Under-relaxation          1             -4.638271E-02                  1_GWF-(1,39,111)
 Linear Solver             2         1    3.992559E-03                  1_GWF-(1,150,79)

 2 CALLS TO NUMERICAL SOLUTION IN TIME STEP 7 STRESS PERIOD 4
 3 TOTAL ITERATIONS


 OUTER ITERATION SUMMARY
 ---------------------------------------------------------------------------------------
                       OUTER     INNER         MAXIMUM                    MAXIMUM CHANGE
                   ITERATION ITERATION          CHANGE                    MODEL-(CELLID)
 ---------------------------------------------------------------------------------------
 Linear Solver             1         2   -4.378691E-02                  1_GWF-(1,39,111)
 Under-relaxation          1             -4.378691E-02                  1_GWF-(1,39,111)
 Linear Solver             2         1    3.865780E-03                  1_GWF-(1,150,79)

 2 CALLS TO NUMERICAL SOLUTION IN TIME STEP 8 STRESS PERIOD 4
 3 TOTAL ITERATIONS


 OUTER ITERATION SUMMARY
 ---------------------------------------------------------------------------------------
                       OUTER     INNER         MAXIMUM                    MAXIMUM CHANGE
                   ITERATION ITERATION          CHANGE                    MODEL-(CELLID)
 ---------------------------------------------------------------------------------------
 Linear Solver             1         2   -4.122990E-02                  1_GWF-(1,39,111)
 Under-relaxation          1             -4.122990E-02                  1_GWF-(1,39,111)
 Linear Solver             2         2    1.711320E-02                  1_GWF-(1,42,109)
 Under-relaxation          2              1.540188E-02                  1_GWF-(1,42,109)
 Linear Solver             3         1    1.501720E-03                  1_GWF-(1,42,109)

 3 CALLS TO NUMERICAL SOLUTION IN TIME STEP 9 STRESS PERIOD 4
 5 TOTAL ITERATIONS


 OUTER ITERATION SUMMARY
 ---------------------------------------------------------------------------------------
                       OUTER     INNER         MAXIMUM                    MAXIMUM CHANGE
                   ITERATION ITERATION          CHANGE                    MODEL-(CELLID)
 ---------------------------------------------------------------------------------------
 Linear Solver             1         2   -3.827873E-02                  1_GWF-(1,39,111)
 Under-relaxation          1             -3.827873E-02                  1_GWF-(1,39,111)
 Linear Solver             2         1    3.639853E-03                  1_GWF-(1,61,116)

 2 CALLS TO NUMERICAL SOLUTION IN TIME STEP 10 STRESS PERIOD 4
 3 TOTAL ITERATIONS
1
                            STRESS PERIOD NO.    5, LENGTH =   2592000.    
                            -----------------------------------------------

                              NUMBER OF TIME STEPS =    10

                               MULTIPLIER FOR DELT =     1.000

                            INITIAL TIME STEP SIZE =   259200.0    


 OUTER ITERATION SUMMARY
 ---------------------------------------------------------------------------------------
                       OUTER     INNER         MAXIMUM                    MAXIMUM CHANGE
                   ITERATION ITERATION          CHANGE                    MODEL-(CELLID)
 ---------------------------------------------------------------------------------------
 Linear Solver             1         4     1.08425                      1_GWF-(1,152,81)
 Under-relaxation          1               1.08425                      1_GWF-(1,152,81)
 Linear Solver             2         2    0.237725                      1_GWF-(1,151,80)
 Under-relaxation          2              0.237725                      1_GWF-(1,151,80)
 Linear Solver             3         1   -2.900398E-03                  1_GWF-(1,164,78)

 3 CALLS TO NUMERICAL SOLUTION IN TIME STEP 1 STRESS PERIOD 5
 7 TOTAL ITERATIONS


 OUTER ITERATION SUMMARY
 ---------------------------------------------------------------------------------------
                       OUTER     INNER         MAXIMUM                    MAXIMUM CHANGE
                   ITERATION ITERATION          CHANGE                    MODEL-(CELLID)
 ---------------------------------------------------------------------------------------
 Linear Solver             1         3    0.515895                      1_GWF-(1,151,80)
 Under-relaxation          1              0.515895                      1_GWF-(1,151,80)
 Linear Solver             2         2    2.346263E-02                  1_GWF-(1,52,104)
 Under-relaxation          2              2.346263E-02                  1_GWF-(1,52,104)
 Linear Solver             3         1    4.910536E-04                  1_GWF-(1,109,17)

 3 CALLS TO NUMERICAL SOLUTION IN TIME STEP 2 STRESS PERIOD 5
 6 TOTAL ITERATIONS


 OUTER ITERATION SUMMARY
 ---------------------------------------------------------------------------------------
                       OUTER     INNER         MAXIMUM                    MAXIMUM CHANGE
                   ITERATION ITERATION          CHANGE                    MODEL-(CELLID)
 ---------------------------------------------------------------------------------------
 Linear Solver             1         3    0.285300                      1_GWF-(1,47,112)
 Under-relaxation          1              0.285300                      1_GWF-(1,47,112)
 Linear Solver             2         2    9.147805E-02                  1_GWF-(1,154,85)
 Under-relaxation          2              9.147805E-02                  1_GWF-(1,154,85)
 Linear Solver             3         1   -4.837448E-04                  1_GWF-(1,154,85)

 3 CALLS TO NUMERICAL SOLUTION IN TIME STEP 3 STRESS PERIOD 5
 6 TOTAL ITERATIONS


 OUTER ITERATION SUMMARY
 ---------------------------------------------------------------------------------------
                       OUTER     INNER         MAXIMUM                    MAXIMUM CHANGE
                   ITERATION ITERATION          CHANGE                    MODEL-(CELLID)
 ---------------------------------------------------------------------------------------
 Linear Solver             1         3    0.233162                      1_GWF-(1,48,112)
 Under-relaxation          1              0.233162                      1_GWF-(1,48,112)
 Linear Solver             2         2    1.593864E-02                  1_GWF-(1,60,106)
 Under-relaxation          2              1.593864E-02                  1_GWF-(1,60,106)
 Linear Solver             3         1    4.315110E-04                  1_GWF-(1,109,17)

 3 CALLS TO NUMERICAL SOLUTION IN TIME STEP 4 STRESS PERIOD 5
 6 TOTAL ITERATIONS


 OUTER ITERATION SUMMARY
 ---------------------------------------------------------------------------------------
                       OUTER     INNER         MAXIMUM                    MAXIMUM CHANGE
                   ITERATION ITERATION          CHANGE                    MODEL-(CELLID)
 ---------------------------------------------------------------------------------------
 Linear Solver             1         3    0.192533                      1_GWF-(1,48,112)
 Under-relaxation          1              0.192533                      1_GWF-(1,48,112)
 Linear Solver             2         2   -1.063619E-02                  1_GWF-(1,150,79)
 Under-relaxation          2             -9.572569E-03                  1_GWF-(1,150,79)
 Linear Solver             3         1    4.099273E-04                  1_GWF-(1,109,17)

 3 CALLS TO NUMERICAL SOLUTION IN TIME STEP 5 STRESS PERIOD 5
 6 TOTAL ITERATIONS


 OUTER ITERATION SUMMARY
 ---------------------------------------------------------------------------------------
                       OUTER     INNER         MAXIMUM                    MAXIMUM CHANGE
                   ITERATION ITERATION          CHANGE                    MODEL-(CELLID)
 ---------------------------------------------------------------------------------------
 Linear Solver             1         3    0.160973                      1_GWF-(1,47,112)
 Under-relaxation          1              0.160973                      1_GWF-(1,47,112)
 Linear Solver             2         2    0.116305                      1_GWF-(1,44,108)
 Under-relaxation          2              0.116305                      1_GWF-(1,44,108)
 Linear Solver             3         1   -4.959492E-04                  1_GWF-(1,44,108)

 3 CALLS TO NUMERICAL SOLUTION IN TIME STEP 6 STRESS PERIOD 5
 6 TOTAL ITERATIONS


 OUTER ITERATION SUMMARY
 ---------------------------------------------------------------------------------------
                       OUTER     INNER         MAXIMUM                    MAXIMUM CHANGE
                   ITERATION ITERATION          CHANGE                    MODEL-(CELLID)
 ---------------------------------------------------------------------------------------
 Linear Solver             1         2    0.262455                      1_GWF-(1,44,108)
 Under-relaxation          1              0.262455                      1_GWF-(1,44,108)
 Linear Solver             2         2    2.031062E-02                  1_GWF-(1,61,113)
 Under-relaxation          2              2.031062E-02                  1_GWF-(1,61,113)
 Linear Solver             3         1    3.578935E-04                  1_GWF-(1,109,17)

 3 CALLS TO NUMERICAL SOLUTION IN TIME STEP 7 STRESS PERIOD 5
 5 TOTAL ITERATIONS


 OUTER ITERATION SUMMARY
 ---------------------------------------------------------------------------------------
                       OUTER     INNER         MAXIMUM                    MAXIMUM CHANGE
                   ITERATION ITERATION          CHANGE                    MODEL-(CELLID)
 ---------------------------------------------------------------------------------------
 Linear Solver             1         2    0.133067                      1_GWF-(1,41,110)
 Under-relaxation          1              0.133067                      1_GWF-(1,41,110)
 Linear Solver             2         2    0.234907                      1_GWF-(1,45,107)
 Under-relaxation          2              0.234907                      1_GWF-(1,45,107)
 Linear Solver             3         1   -8.183342E-04                  1_GWF-(1,45,107)

 3 CALLS TO NUMERICAL SOLUTION IN TIME STEP 8 STRESS PERIOD 5
 5 TOTAL ITERATIONS


 OUTER ITERATION SUMMARY
 ---------------------------------------------------------------------------------------
                       OUTER     INNER         MAXIMUM                    MAXIMUM CHANGE
                   ITERATION ITERATION          CHANGE                    MODEL-(CELLID)
 ---------------------------------------------------------------------------------------
 Linear Solver             1         2    0.216674                      1_GWF-(1,45,107)
 Under-relaxation          1              0.216674                      1_GWF-(1,45,107)
 Linear Solver             2         2    1.766805E-02                 1_GWF-(1,119,110)
 Under-relaxation          2              1.766805E-02                 1_GWF-(1,119,110)
 Linear Solver             3         1   -5.343541E-04                 1_GWF-(1,148,101)

 3 CALLS TO NUMERICAL SOLUTION IN TIME STEP 9 STRESS PERIOD 5
 5 TOTAL ITERATIONS


 OUTER ITERATION SUMMARY
 ---------------------------------------------------------------------------------------
                       OUTER     INNER         MAXIMUM                    MAXIMUM CHANGE
                   ITERATION ITERATION          CHANGE                    MODEL-(CELLID)
 ---------------------------------------------------------------------------------------
 Linear Solver             1         2    0.121199                      1_GWF-(1,45,107)
 Under-relaxation          1              0.121199                      1_GWF-(1,45,107)
 Linear Solver             2         2    3.413299E-02                  1_GWF-(1,151,83)
 Under-relaxation          2              3.413299E-02                  1_GWF-(1,151,83)
 Linear Solver             3         1    9.062182E-04                  1_GWF-(1,151,82)

 3 CALLS TO NUMERICAL SOLUTION IN TIME STEP 10 STRESS PERIOD 5
 5 TOTAL ITERATIONS
1
                            STRESS PERIOD NO.    6, LENGTH =   2592000.    
                            -----------------------------------------------

                              NUMBER OF TIME STEPS =    10

                               MULTIPLIER FOR DELT =     1.000

                            INITIAL TIME STEP SIZE =   259200.0    


 OUTER ITERATION SUMMARY
 ---------------------------------------------------------------------------------------
                       OUTER     INNER         MAXIMUM                    MAXIMUM CHANGE
                   ITERATION ITERATION          CHANGE                    MODEL-(CELLID)
 ---------------------------------------------------------------------------------------
 Linear Solver             1         3   -0.558396                      1_GWF-(1,152,81)
 Under-relaxation          1             -0.558396                      1_GWF-(1,152,81)
 Linear Solver             2         2   -1.878641E-02                 1_GWF-(1,148,101)
 Under-relaxation          2             -1.878641E-02                 1_GWF-(1,148,101)
 Linear Solver             3         1    2.539153E-04                  1_GWF-(1,150,78)

 3 CALLS TO NUMERICAL SOLUTION IN TIME STEP 1 STRESS PERIOD 6
 6 TOTAL ITERATIONS


 OUTER ITERATION SUMMARY
 ---------------------------------------------------------------------------------------
                       OUTER     INNER         MAXIMUM                    MAXIMUM CHANGE
                   ITERATION ITERATION          CHANGE                    MODEL-(CELLID)
 ---------------------------------------------------------------------------------------
 Linear Solver             1         2   -0.107358                      1_GWF-(1,47,112)
 Under-relaxation          1             -0.107358                      1_GWF-(1,47,112)
 Linear Solver             2         1   -2.906699E-03                  1_GWF-(1,151,78)

 2 CALLS TO NUMERICAL SOLUTION IN TIME STEP 2 STRESS PERIOD 6
 3 TOTAL ITERATIONS


 OUTER ITERATION SUMMARY
 ---------------------------------------------------------------------------------------
                       OUTER     INNER         MAXIMUM                    MAXIMUM CHANGE
                   ITERATION ITERATION          CHANGE                    MODEL-(CELLID)
 ---------------------------------------------------------------------------------------
 Linear Solver             1         2   -8.373968E-02                  1_GWF-(1,48,113)
 Under-relaxation          1             -8.373968E-02                  1_GWF-(1,48,113)
 Linear Solver             2         1   -2.658417E-03                  1_GWF-(1,151,78)

 2 CALLS TO NUMERICAL SOLUTION IN TIME STEP 3 STRESS PERIOD 6
 3 TOTAL ITERATIONS


 OUTER ITERATION SUMMARY
 ---------------------------------------------------------------------------------------
                       OUTER     INNER         MAXIMUM                    MAXIMUM CHANGE
                   ITERATION ITERATION          CHANGE                    MODEL-(CELLID)
 ---------------------------------------------------------------------------------------
 Linear Solver             1         2   -6.472252E-02                  1_GWF-(1,48,113)
 Under-relaxation          1             -6.472252E-02                  1_GWF-(1,48,113)
 Linear Solver             2         2   -1.368272E-02                   1_GWF-(1,88,42)
 Under-relaxation          2             -1.368272E-02                   1_GWF-(1,88,42)
 Linear Solver             3         1    9.338481E-05                  1_GWF-(1,150,80)

 3 CALLS TO NUMERICAL SOLUTION IN TIME STEP 4 STRESS PERIOD 6
 5 TOTAL ITERATIONS


 OUTER ITERATION SUMMARY
 ---------------------------------------------------------------------------------------
                       OUTER     INNER         MAXIMUM                    MAXIMUM CHANGE
                   ITERATION ITERATION          CHANGE                    MODEL-(CELLID)
 ---------------------------------------------------------------------------------------
 Linear Solver             1         2   -4.977936E-02                  1_GWF-(1,49,114)
 Under-relaxation          1             -4.977936E-02                  1_GWF-(1,49,114)
 Linear Solver             2         1   -2.310264E-03                  1_GWF-(1,151,78)

 2 CALLS TO NUMERICAL SOLUTION IN TIME STEP 5 STRESS PERIOD 6
 3 TOTAL ITERATIONS


 OUTER ITERATION SUMMARY
 ---------------------------------------------------------------------------------------
                       OUTER     INNER         MAXIMUM                    MAXIMUM CHANGE
                   ITERATION ITERATION          CHANGE                    MODEL-(CELLID)
 ---------------------------------------------------------------------------------------
 Linear Solver             1         2   -3.813958E-02                  1_GWF-(1,49,114)
 Under-relaxation          1             -3.813958E-02                  1_GWF-(1,49,114)
 Linear Solver             2         1   -2.182145E-03                  1_GWF-(1,151,78)

 2 CALLS TO NUMERICAL SOLUTION IN TIME STEP 6 STRESS PERIOD 6
 3 TOTAL ITERATIONS


 OUTER ITERATION SUMMARY
 ---------------------------------------------------------------------------------------
                       OUTER     INNER         MAXIMUM                    MAXIMUM CHANGE
                   ITERATION ITERATION          CHANGE                    MODEL-(CELLID)
 ---------------------------------------------------------------------------------------
 Linear Solver             1         2    3.302259E-02                  1_GWF-(1,43,107)
 Under-relaxation          1              3.302259E-02                  1_GWF-(1,43,107)
 Linear Solver             2         1   -2.076110E-03                  1_GWF-(1,151,78)

 2 CALLS TO NUMERICAL SOLUTION IN TIME STEP 7 STRESS PERIOD 6
 3 TOTAL ITERATIONS


 OUTER ITERATION SUMMARY
 ---------------------------------------------------------------------------------------
                       OUTER     INNER         MAXIMUM                    MAXIMUM CHANGE
                   ITERATION ITERATION          CHANGE                    MODEL-(CELLID)
 ---------------------------------------------------------------------------------------
 Linear Solver             1         2    3.057536E-02                  1_GWF-(1,43,107)
 Under-relaxation          1              3.057536E-02                  1_GWF-(1,43,107)
 Linear Solver             2         1   -1.988022E-03                  1_GWF-(1,151,78)

 2 CALLS TO NUMERICAL SOLUTION IN TIME STEP 8 STRESS PERIOD 6
 3 TOTAL ITERATIONS


 OUTER ITERATION SUMMARY
 ---------------------------------------------------------------------------------------
                       OUTER     INNER         MAXIMUM                    MAXIMUM CHANGE
                   ITERATION ITERATION          CHANGE                    MODEL-(CELLID)
 ---------------------------------------------------------------------------------------
 Linear Solver             1         2    2.838069E-02                  1_GWF-(1,43,107)
 Under-relaxation          1              2.838069E-02                  1_GWF-(1,43,107)
 Linear Solver             2         1    2.420994E-03                 1_GWF-(1,125,111)

 2 CALLS TO NUMERICAL SOLUTION IN TIME STEP 9 STRESS PERIOD 6
 3 TOTAL ITERATIONS


 OUTER ITERATION SUMMARY
 ---------------------------------------------------------------------------------------
                       OUTER     INNER         MAXIMUM                    MAXIMUM CHANGE
                   ITERATION ITERATION          CHANGE                    MODEL-(CELLID)
 ---------------------------------------------------------------------------------------
 Linear Solver             1         2    2.642338E-02                  1_GWF-(1,43,107)
 Under-relaxation          1              2.642338E-02                  1_GWF-(1,43,107)
 Linear Solver             2         1    4.002994E-03                   1_GWF-(1,71,93)

 2 CALLS TO NUMERICAL SOLUTION IN TIME STEP 10 STRESS PERIOD 6
 3 TOTAL ITERATIONS
1
                            STRESS PERIOD NO.    7, LENGTH =   2592000.    
                            -----------------------------------------------

                              NUMBER OF TIME STEPS =    10

                               MULTIPLIER FOR DELT =     1.000

                            INITIAL TIME STEP SIZE =   259200.0    


 OUTER ITERATION SUMMARY
 ---------------------------------------------------------------------------------------
                       OUTER     INNER         MAXIMUM                    MAXIMUM CHANGE
                   ITERATION ITERATION          CHANGE                    MODEL-(CELLID)
 ---------------------------------------------------------------------------------------
 Linear Solver             1         4    -2.38996                      1_GWF-(1,151,81)
 Under-relaxation          1              -2.38996                      1_GWF-(1,151,81)
 Linear Solver             2         3     1.40444                      1_GWF-(1,151,83)
 Under-relaxation          2               1.26399                      1_GWF-(1,151,83)
 Linear Solver             3         1   -7.824635E-03                  1_GWF-(1,151,80)

 3 CALLS TO NUMERICAL SOLUTION IN TIME STEP 1 STRESS PERIOD 7
 8 TOTAL ITERATIONS


 OUTER ITERATION SUMMARY
 ---------------------------------------------------------------------------------------
                       OUTER     INNER         MAXIMUM                    MAXIMUM CHANGE
                   ITERATION ITERATION          CHANGE                    MODEL-(CELLID)
 ---------------------------------------------------------------------------------------
 Linear Solver             1         3   -0.665395                      1_GWF-(1,47,111)
 Under-relaxation          1             -0.665395                      1_GWF-(1,47,111)
 Linear Solver             2         2    0.144779                      1_GWF-(1,148,79)
 Under-relaxation          2              0.130301                      1_GWF-(1,148,79)
 Linear Solver             3         1    6.121511E-03                  1_GWF-(1,60,112)

 3 CALLS TO NUMERICAL SOLUTION IN TIME STEP 2 STRESS PERIOD 7
 6 TOTAL ITERATIONS


 OUTER ITERATION SUMMARY
 ---------------------------------------------------------------------------------------
                       OUTER     INNER         MAXIMUM                    MAXIMUM CHANGE
                   ITERATION ITERATION          CHANGE                    MODEL-(CELLID)
 ---------------------------------------------------------------------------------------
 Linear Solver             1         3   -0.540739                      1_GWF-(1,47,112)
 Under-relaxation          1             -0.540739                      1_GWF-(1,47,112)
 Linear Solver             2         2    4.107442E-02                  1_GWF-(1,60,106)
 Under-relaxation          2              3.696698E-02                  1_GWF-(1,60,106)
 Linear Solver             3         1    3.678462E-03                  1_GWF-(1,60,106)

 3 CALLS TO NUMERICAL SOLUTION IN TIME STEP 3 STRESS PERIOD 7
 6 TOTAL ITERATIONS


 OUTER ITERATION SUMMARY
 ---------------------------------------------------------------------------------------
                       OUTER     INNER         MAXIMUM                    MAXIMUM CHANGE
                   ITERATION ITERATION          CHANGE                    MODEL-(CELLID)
 ---------------------------------------------------------------------------------------
 Linear Solver             1         3   -0.444091                      1_GWF-(1,47,112)
 Under-relaxation          1             -0.444091                      1_GWF-(1,47,112)
 Linear Solver             2         2   -0.159619                      1_GWF-(1,164,78)
 Under-relaxation          2             -0.159619                      1_GWF-(1,164,78)
 Linear Solver             3         1    4.630877E-03                  1_GWF-(1,52,104)

 3 CALLS TO NUMERICAL SOLUTION IN TIME STEP 4 STRESS PERIOD 7
 6 TOTAL ITERATIONS


 OUTER ITERATION SUMMARY
 ---------------------------------------------------------------------------------------
                       OUTER     INNER         MAXIMUM                    MAXIMUM CHANGE
                   ITERATION ITERATION          CHANGE                    MODEL-(CELLID)
 ---------------------------------------------------------------------------------------
 Linear Solver             1         3   -0.365209                      1_GWF-(1,47,112)
 Under-relaxation          1             -0.365209                      1_GWF-(1,47,112)
 Linear Solver             2         2    4.758664E-02                  1_GWF-(1,60,114)
 Under-relaxation          2              4.282797E-02                  1_GWF-(1,60,114)
 Linear Solver             3         1    4.603337E-03                  1_GWF-(1,60,114)

 3 CALLS TO NUMERICAL SOLUTION IN TIME STEP 5 STRESS PERIOD 7
 6 TOTAL ITERATIONS


 OUTER ITERATION SUMMARY
 ---------------------------------------------------------------------------------------
                       OUTER     INNER         MAXIMUM                    MAXIMUM CHANGE
                   ITERATION ITERATION          CHANGE                    MODEL-(CELLID)
 ---------------------------------------------------------------------------------------
 Linear Solver             1         3   -0.304304                      1_GWF-(1,47,112)
 Under-relaxation          1             -0.304304                      1_GWF-(1,47,112)
 Linear Solver             2         2   -8.006749E-02                  1_GWF-(1,166,81)
 Under-relaxation          2             -8.006749E-02                  1_GWF-(1,166,81)
 Linear Solver             3         1    5.731048E-03                  1_GWF-(1,37,113)

 3 CALLS TO NUMERICAL SOLUTION IN TIME STEP 6 STRESS PERIOD 7
 6 TOTAL ITERATIONS


 OUTER ITERATION SUMMARY
 ---------------------------------------------------------------------------------------
                       OUTER     INNER         MAXIMUM                    MAXIMUM CHANGE
                   ITERATION ITERATION          CHANGE                    MODEL-(CELLID)
 ---------------------------------------------------------------------------------------
 Linear Solver             1         3   -0.275200                      1_GWF-(1,39,111)
 Under-relaxation          1             -0.275200                      1_GWF-(1,39,111)
 Linear Solver             2         2    6.614800E-02                  1_GWF-(1,36,114)
 Under-relaxation          2              5.953320E-02                  1_GWF-(1,36,114)
 Linear Solver             3         1    6.017125E-03                  1_GWF-(1,36,114)

 3 CALLS TO NUMERICAL SOLUTION IN TIME STEP 7 STRESS PERIOD 7
 6 TOTAL ITERATIONS


 OUTER ITERATION SUMMARY
 ---------------------------------------------------------------------------------------
                       OUTER     INNER         MAXIMUM                    MAXIMUM CHANGE
                   ITERATION ITERATION          CHANGE                    MODEL-(CELLID)
 ---------------------------------------------------------------------------------------
 Linear Solver             1         3   -0.257101                      1_GWF-(1,39,111)
 Under-relaxation          1             -0.257101                      1_GWF-(1,39,111)
 Linear Solver             2         2    8.883789E-02                  1_GWF-(1,46,108)
 Under-relaxation          2              7.995411E-02                  1_GWF-(1,46,108)
 Linear Solver             3         1    7.492511E-03                  1_GWF-(1,46,108)

 3 CALLS TO NUMERICAL SOLUTION IN TIME STEP 8 STRESS PERIOD 7
 6 TOTAL ITERATIONS


 OUTER ITERATION SUMMARY
 ---------------------------------------------------------------------------------------
                       OUTER     INNER         MAXIMUM                    MAXIMUM CHANGE
                   ITERATION ITERATION          CHANGE                    MODEL-(CELLID)
 ---------------------------------------------------------------------------------------
 Linear Solver             1         3   -0.239275                      1_GWF-(1,39,111)
 Under-relaxation          1             -0.239275                      1_GWF-(1,39,111)
 Linear Solver             2         2   -8.654897E-02                  1_GWF-(1,157,84)
 Under-relaxation          2             -8.654897E-02                  1_GWF-(1,157,84)
 Linear Solver             3         1    5.396866E-03                  1_GWF-(1,48,108)

 3 CALLS TO NUMERICAL SOLUTION IN TIME STEP 9 STRESS PERIOD 7
 6 TOTAL ITERATIONS


 OUTER ITERATION SUMMARY
 ---------------------------------------------------------------------------------------
                       OUTER     INNER         MAXIMUM                    MAXIMUM CHANGE
                   ITERATION ITERATION          CHANGE                    MODEL-(CELLID)
 ---------------------------------------------------------------------------------------
 Linear Solver             1         3   -0.222265                      1_GWF-(1,39,111)
 Under-relaxation          1             -0.222265                      1_GWF-(1,39,111)
 Linear Solver             2         2    0.115734                      1_GWF-(1,43,109)
 Under-relaxation          2              0.104161                      1_GWF-(1,43,109)
 Linear Solver             3         1    9.692242E-03                  1_GWF-(1,43,109)

 3 CALLS TO NUMERICAL SOLUTION IN TIME STEP 10 STRESS PERIOD 7
 6 TOTAL ITERATIONS
1
                            STRESS PERIOD NO.    8, LENGTH =   2592000.    
                            -----------------------------------------------

                              NUMBER OF TIME STEPS =    10

                               MULTIPLIER FOR DELT =     1.000

                            INITIAL TIME STEP SIZE =   259200.0    


 OUTER ITERATION SUMMARY
 ---------------------------------------------------------------------------------------
                       OUTER     INNER         MAXIMUM                    MAXIMUM CHANGE
                   ITERATION ITERATION          CHANGE                    MODEL-(CELLID)
 ---------------------------------------------------------------------------------------
 Linear Solver             1         4    -1.09585                      1_GWF-(1,152,81)
 Under-relaxation          1              -1.09585                      1_GWF-(1,152,81)
 Linear Solver             2         3    0.192048                      1_GWF-(1,155,85)
 Under-relaxation          2              0.172843                      1_GWF-(1,155,85)
 Linear Solver             3         2    1.027777E-02                  1_GWF-(1,49,105)
 Under-relaxation          3              9.251016E-03                  1_GWF-(1,49,105)
 Linear Solver             4         1    8.602155E-04                  1_GWF-(1,48,107)

 4 CALLS TO NUMERICAL SOLUTION IN TIME STEP 1 STRESS PERIOD 8
 10 TOTAL ITERATIONS


 OUTER ITERATION SUMMARY
 ---------------------------------------------------------------------------------------
                       OUTER     INNER         MAXIMUM                    MAXIMUM CHANGE
                   ITERATION ITERATION          CHANGE                    MODEL-(CELLID)
 ---------------------------------------------------------------------------------------
 Linear Solver             1         3   -0.408593                      1_GWF-(1,46,113)
 Under-relaxation          1             -0.408593                      1_GWF-(1,46,113)
 Linear Solver             2         2    0.197464                      1_GWF-(1,150,81)
 Under-relaxation          2              0.177718                      1_GWF-(1,150,81)
 Linear Solver             3         1    4.934668E-03                  1_GWF-(1,42,110)

 3 CALLS TO NUMERICAL SOLUTION IN TIME STEP 2 STRESS PERIOD 8
 6 TOTAL ITERATIONS


 OUTER ITERATION SUMMARY
 ---------------------------------------------------------------------------------------
                       OUTER     INNER         MAXIMUM                    MAXIMUM CHANGE
                   ITERATION ITERATION          CHANGE                    MODEL-(CELLID)
 ---------------------------------------------------------------------------------------
 Linear Solver             1         3   -0.331221                      1_GWF-(1,47,113)
 Under-relaxation          1             -0.331221                      1_GWF-(1,47,113)
 Linear Solver             2         2    5.728587E-02                  1_GWF-(1,53,104)
 Under-relaxation          2              5.155728E-02                  1_GWF-(1,53,104)
 Linear Solver             3         1    4.904133E-03                  1_GWF-(1,53,104)

 3 CALLS TO NUMERICAL SOLUTION IN TIME STEP 3 STRESS PERIOD 8
 6 TOTAL ITERATIONS


 OUTER ITERATION SUMMARY
 ---------------------------------------------------------------------------------------
                       OUTER     INNER         MAXIMUM                    MAXIMUM CHANGE
                   ITERATION ITERATION          CHANGE                    MODEL-(CELLID)
 ---------------------------------------------------------------------------------------
 Linear Solver             1         3    -1.06071                      1_GWF-(1,153,77)
 Under-relaxation          1              -1.06071                      1_GWF-(1,153,77)
 Linear Solver             2         2   -0.132124                      1_GWF-(1,165,75)
 Under-relaxation          2             -0.132124                      1_GWF-(1,165,75)
 Linear Solver             3         2   -1.943390E-02                  1_GWF-(1,134,61)
 Under-relaxation          3             -1.574146E-02                  1_GWF-(1,134,61)
 Linear Solver             4         1   -1.957698E-03                  1_GWF-(1,134,61)

 4 CALLS TO NUMERICAL SOLUTION IN TIME STEP 4 STRESS PERIOD 8
 8 TOTAL ITERATIONS


 OUTER ITERATION SUMMARY
 ---------------------------------------------------------------------------------------
                       OUTER     INNER         MAXIMUM                    MAXIMUM CHANGE
                   ITERATION ITERATION          CHANGE                    MODEL-(CELLID)
 ---------------------------------------------------------------------------------------
 Linear Solver             1         3   -0.273406                      1_GWF-(1,39,111)
 Under-relaxation          1             -0.273406                      1_GWF-(1,39,111)
 Linear Solver             2         2   -0.272956                      1_GWF-(1,134,61)
 Under-relaxation          2             -0.272956                      1_GWF-(1,134,61)
 Linear Solver             3         1    2.875567E-03                  1_GWF-(1,134,61)

 3 CALLS TO NUMERICAL SOLUTION IN TIME STEP 5 STRESS PERIOD 8
 6 TOTAL ITERATIONS


 OUTER ITERATION SUMMARY
 ---------------------------------------------------------------------------------------
                       OUTER     INNER         MAXIMUM                    MAXIMUM CHANGE
                   ITERATION ITERATION          CHANGE                    MODEL-(CELLID)
 ---------------------------------------------------------------------------------------
 Linear Solver             1         3   -0.257784                      1_GWF-(1,39,111)
 Under-relaxation          1             -0.257784                      1_GWF-(1,39,111)
 Linear Solver             2         2    7.137167E-02                  1_GWF-(1,43,110)
 Under-relaxation          2              6.423450E-02                  1_GWF-(1,43,110)
 Linear Solver             3         1    6.326128E-03                  1_GWF-(1,43,110)

 3 CALLS TO NUMERICAL SOLUTION IN TIME STEP 6 STRESS PERIOD 8
 6 TOTAL ITERATIONS


 OUTER ITERATION SUMMARY
 ---------------------------------------------------------------------------------------
                       OUTER     INNER         MAXIMUM                    MAXIMUM CHANGE
                   ITERATION ITERATION          CHANGE                    MODEL-(CELLID)
 ---------------------------------------------------------------------------------------
 Linear Solver             1         3   -0.239726                      1_GWF-(1,39,111)
 Under-relaxation          1             -0.239726                      1_GWF-(1,39,111)
 Linear Solver             2         3   -0.342780                      1_GWF-(1,156,78)
 Under-relaxation          2             -0.342780                      1_GWF-(1,156,78)
 Linear Solver             3         1   -2.024822E-03                  1_GWF-(1,154,77)

 3 CALLS TO NUMERICAL SOLUTION IN TIME STEP 7 STRESS PERIOD 8
 7 TOTAL ITERATIONS


 OUTER ITERATION SUMMARY
 ---------------------------------------------------------------------------------------
                       OUTER     INNER         MAXIMUM                    MAXIMUM CHANGE
                   ITERATION ITERATION          CHANGE                    MODEL-(CELLID)
 ---------------------------------------------------------------------------------------
 Linear Solver             1         3    -1.02830                      1_GWF-(1,156,78)
 Under-relaxation          1              -1.02830                      1_GWF-(1,156,78)
 Linear Solver             2         2    5.512334E-02                  1_GWF-(1,154,86)
 Under-relaxation          2              4.961100E-02                  1_GWF-(1,154,86)
 Linear Solver             3         1    1.675439E-03                  1_GWF-(1,154,86)

 3 CALLS TO NUMERICAL SOLUTION IN TIME STEP 8 STRESS PERIOD 8
 6 TOTAL ITERATIONS


 OUTER ITERATION SUMMARY
 ---------------------------------------------------------------------------------------
                       OUTER     INNER         MAXIMUM                    MAXIMUM CHANGE
                   ITERATION ITERATION          CHANGE                    MODEL-(CELLID)
 ---------------------------------------------------------------------------------------
 Linear Solver             1         3   -0.209603                      1_GWF-(1,39,111)
 Under-relaxation          1             -0.209603                      1_GWF-(1,39,111)
 Linear Solver             2         2    3.498629E-02                  1_GWF-(1,171,72)
 Under-relaxation          2              3.148766E-02                  1_GWF-(1,171,72)
 Linear Solver             3         2   -1.670532E-02                  1_GWF-(1,171,72)
 Under-relaxation          3             -1.353131E-02                  1_GWF-(1,171,72)
 Linear Solver             4         1   -1.752897E-03                  1_GWF-(1,171,72)

 4 CALLS TO NUMERICAL SOLUTION IN TIME STEP 9 STRESS PERIOD 8
 8 TOTAL ITERATIONS


 OUTER ITERATION SUMMARY
 ---------------------------------------------------------------------------------------
                       OUTER     INNER         MAXIMUM                    MAXIMUM CHANGE
                   ITERATION ITERATION          CHANGE                    MODEL-(CELLID)
 ---------------------------------------------------------------------------------------
 Linear Solver             1         3   -0.196815                      1_GWF-(1,155,79)
 Under-relaxation          1             -0.196815                      1_GWF-(1,155,79)
 Linear Solver             2         3   -0.335164                      1_GWF-(1,171,72)
 Under-relaxation          2             -0.335164                      1_GWF-(1,171,72)
 Linear Solver             3         1    8.239263E-03                  1_GWF-(1,172,72)

 3 CALLS TO NUMERICAL SOLUTION IN TIME STEP 10 STRESS PERIOD 8
 7 TOTAL ITERATIONS
1
                            STRESS PERIOD NO.    9, LENGTH =   2592000.    
                            -----------------------------------------------

                              NUMBER OF TIME STEPS =    10

                               MULTIPLIER FOR DELT =     1.000

                            INITIAL TIME STEP SIZE =   259200.0    


 OUTER ITERATION SUMMARY
 ---------------------------------------------------------------------------------------
                       OUTER     INNER         MAXIMUM                    MAXIMUM CHANGE
                   ITERATION ITERATION          CHANGE                    MODEL-(CELLID)
 ---------------------------------------------------------------------------------------
 Linear Solver             1         3     1.09120                      1_GWF-(1,152,81)
 Under-relaxation          1               1.09120                      1_GWF-(1,152,81)
 Linear Solver             2         2    1.430555E-02                  1_GWF-(1,151,78)
 Under-relaxation          2              1.287499E-02                  1_GWF-(1,151,78)
 Linear Solver             3         1   -1.474530E-03                  1_GWF-(1,163,59)

 3 CALLS TO NUMERICAL SOLUTION IN TIME STEP 1 STRESS PERIOD 9
 6 TOTAL ITERATIONS


 OUTER ITERATION SUMMARY
 ---------------------------------------------------------------------------------------
                       OUTER     INNER         MAXIMUM                    MAXIMUM CHANGE
                   ITERATION ITERATION          CHANGE                    MODEL-(CELLID)
 ---------------------------------------------------------------------------------------
 Linear Solver             1         2    0.273056                      1_GWF-(1,47,116)
 Under-relaxation          1              0.273056                      1_GWF-(1,47,116)
 Linear Solver             2         2    1.351695E-02                  1_GWF-(1,151,78)
 Under-relaxation          2              1.216526E-02                  1_GWF-(1,151,78)
 Linear Solver             3         1   -6.899558E-04                  1_GWF-(1,149,78)

 3 CALLS TO NUMERICAL SOLUTION IN TIME STEP 2 STRESS PERIOD 9
 5 TOTAL ITERATIONS


 OUTER ITERATION SUMMARY
 ---------------------------------------------------------------------------------------
                       OUTER     INNER         MAXIMUM                    MAXIMUM CHANGE
                   ITERATION ITERATION          CHANGE                    MODEL-(CELLID)
 ---------------------------------------------------------------------------------------
 Linear Solver             1         2    0.197681                      1_GWF-(1,48,116)
 Under-relaxation          1              0.197681                      1_GWF-(1,48,116)
 Linear Solver             2         2    1.295631E-02                  1_GWF-(1,151,78)
 Under-relaxation          2              1.166068E-02                  1_GWF-(1,151,78)
 Linear Solver             3         1   -3.690591E-04                  1_GWF-(1,164,59)

 3 CALLS TO NUMERICAL SOLUTION IN TIME STEP 3 STRESS PERIOD 9
 5 TOTAL ITERATIONS


 OUTER ITERATION SUMMARY
 ---------------------------------------------------------------------------------------
                       OUTER     INNER         MAXIMUM                    MAXIMUM CHANGE
                   ITERATION ITERATION          CHANGE                    MODEL-(CELLID)
 ---------------------------------------------------------------------------------------
 Linear Solver             1         2    0.141749                      1_GWF-(1,48,116)
 Under-relaxation          1              0.141749                      1_GWF-(1,48,116)
 Linear Solver             2         2    1.249410E-02                  1_GWF-(1,151,78)
 Under-relaxation          2              1.124469E-02                  1_GWF-(1,151,78)
 Linear Solver             3         1   -3.575033E-04                  1_GWF-(1,165,59)

 3 CALLS TO NUMERICAL SOLUTION IN TIME STEP 4 STRESS PERIOD 9
 5 TOTAL ITERATIONS


 OUTER ITERATION SUMMARY
 ---------------------------------------------------------------------------------------
                       OUTER     INNER         MAXIMUM                    MAXIMUM CHANGE
                   ITERATION ITERATION          CHANGE                    MODEL-(CELLID)
 ---------------------------------------------------------------------------------------
 Linear Solver             1         2   -0.123519                      1_GWF-(1,43,107)
 Under-relaxation          1             -0.123519                      1_GWF-(1,43,107)
 Linear Solver             2         2   -5.972573E-02                  1_GWF-(1,154,81)
 Under-relaxation          2             -5.972573E-02                  1_GWF-(1,154,81)
 Linear Solver             3         1   -1.527023E-03                  1_GWF-(1,165,65)

 3 CALLS TO NUMERICAL SOLUTION IN TIME STEP 5 STRESS PERIOD 9
 5 TOTAL ITERATIONS


 OUTER ITERATION SUMMARY
 ---------------------------------------------------------------------------------------
                       OUTER     INNER         MAXIMUM                    MAXIMUM CHANGE
                   ITERATION ITERATION          CHANGE                    MODEL-(CELLID)
 ---------------------------------------------------------------------------------------
 Linear Solver             1         2   -0.487491                      1_GWF-(1,154,81)
 Under-relaxation          1             -0.487491                      1_GWF-(1,154,81)
 Linear Solver             2         2   -3.373977E-02                  1_GWF-(1,165,65)
 Under-relaxation          2             -3.373977E-02                  1_GWF-(1,165,65)
 Linear Solver             3         1    7.481981E-04                  1_GWF-(1,165,65)

 3 CALLS TO NUMERICAL SOLUTION IN TIME STEP 6 STRESS PERIOD 9
 5 TOTAL ITERATIONS


 OUTER ITERATION SUMMARY
 ---------------------------------------------------------------------------------------
                       OUTER     INNER         MAXIMUM                    MAXIMUM CHANGE
                   ITERATION ITERATION          CHANGE                    MODEL-(CELLID)
 ---------------------------------------------------------------------------------------
 Linear Solver             1         2   -0.115650                      1_GWF-(1,43,107)
 Under-relaxation          1             -0.115650                      1_GWF-(1,43,107)
 Linear Solver             2         2    1.152168E-02                  1_GWF-(1,151,78)
 Under-relaxation          2              1.036952E-02                  1_GWF-(1,151,78)
 Linear Solver             3         1    4.556900E-04                  1_GWF-(1,51,105)

 3 CALLS TO NUMERICAL SOLUTION IN TIME STEP 7 STRESS PERIOD 9
 5 TOTAL ITERATIONS


 OUTER ITERATION SUMMARY
 ---------------------------------------------------------------------------------------
                       OUTER     INNER         MAXIMUM                    MAXIMUM CHANGE
                   ITERATION ITERATION          CHANGE                    MODEL-(CELLID)
 ---------------------------------------------------------------------------------------
 Linear Solver             1         2   -0.111518                      1_GWF-(1,43,107)
 Under-relaxation          1             -0.111518                      1_GWF-(1,43,107)
 Linear Solver             2         2    1.127143E-02                  1_GWF-(1,151,78)
 Under-relaxation          2              1.014429E-02                  1_GWF-(1,151,78)
 Linear Solver             3         1   -3.412134E-04                  1_GWF-(1,151,77)

 3 CALLS TO NUMERICAL SOLUTION IN TIME STEP 8 STRESS PERIOD 9
 5 TOTAL ITERATIONS


 OUTER ITERATION SUMMARY
 ---------------------------------------------------------------------------------------
                       OUTER     INNER         MAXIMUM                    MAXIMUM CHANGE
                   ITERATION ITERATION          CHANGE                    MODEL-(CELLID)
 ---------------------------------------------------------------------------------------
 Linear Solver             1         2   -0.107381                      1_GWF-(1,43,107)
 Under-relaxation          1             -0.107381                      1_GWF-(1,43,107)
 Linear Solver             2         2    1.104151E-02                  1_GWF-(1,151,78)
 Under-relaxation          2              9.937355E-03                  1_GWF-(1,151,78)
 Linear Solver             3         1   -3.375577E-04                  1_GWF-(1,151,77)

 3 CALLS TO NUMERICAL SOLUTION IN TIME STEP 9 STRESS PERIOD 9
 5 TOTAL ITERATIONS


 OUTER ITERATION SUMMARY
 ---------------------------------------------------------------------------------------
                       OUTER     INNER         MAXIMUM                    MAXIMUM CHANGE
                   ITERATION ITERATION          CHANGE                    MODEL-(CELLID)
 ---------------------------------------------------------------------------------------
 Linear Solver             1         2   -0.103314                      1_GWF-(1,43,107)
 Under-relaxation          1             -0.103314                      1_GWF-(1,43,107)
 Linear Solver             2         2   -2.947650E-02                   1_GWF-(1,80,65)
 Under-relaxation          2             -2.947650E-02                   1_GWF-(1,80,65)
 Linear Solver             3         1    5.666112E-04                 1_GWF-(1,129,111)

 3 CALLS TO NUMERICAL SOLUTION IN TIME STEP 10 STRESS PERIOD 9
 5 TOTAL ITERATIONS
1
                            STRESS PERIOD NO.   10, LENGTH =   2592000.    
                            -----------------------------------------------

                              NUMBER OF TIME STEPS =    10

                               MULTIPLIER FOR DELT =     1.000

                            INITIAL TIME STEP SIZE =   259200.0    


 OUTER ITERATION SUMMARY
 ---------------------------------------------------------------------------------------
                       OUTER     INNER         MAXIMUM                    MAXIMUM CHANGE
                   ITERATION ITERATION          CHANGE                    MODEL-(CELLID)
 ---------------------------------------------------------------------------------------
 Linear Solver             1         4     1.32564                      1_GWF-(1,152,81)
 Under-relaxation          1               1.32564                      1_GWF-(1,152,81)
 Linear Solver             2         2   -0.182181                     1_GWF-(1,149,100)
 Under-relaxation          2             -0.163963                     1_GWF-(1,149,100)
 Linear Solver             3         2   -1.253827E-02                 1_GWF-(1,149,100)
 Under-relaxation          3             -1.128570E-02                 1_GWF-(1,149,100)
 Linear Solver             4         1   -8.639180E-04                 1_GWF-(1,149,100)

 4 CALLS TO NUMERICAL SOLUTION IN TIME STEP 1 STRESS PERIOD 10
 9 TOTAL ITERATIONS


 OUTER ITERATION SUMMARY
 ---------------------------------------------------------------------------------------
                       OUTER     INNER         MAXIMUM                    MAXIMUM CHANGE
                   ITERATION ITERATION          CHANGE                    MODEL-(CELLID)
 ---------------------------------------------------------------------------------------
 Linear Solver             1         3    0.379063                      1_GWF-(1,47,115)
 Under-relaxation          1              0.379063                      1_GWF-(1,47,115)
 Linear Solver             2         2    3.232997E-02                  1_GWF-(1,51,105)
 Under-relaxation          2              3.232997E-02                  1_GWF-(1,51,105)
 Linear Solver             3         1    7.011869E-04                  1_GWF-(1,109,17)

[...]

                               MULTIPLIER FOR DELT =     1.000

                            INITIAL TIME STEP SIZE =   259200.0    


 OUTER ITERATION SUMMARY
 ---------------------------------------------------------------------------------------
                       OUTER     INNER         MAXIMUM                    MAXIMUM CHANGE
                   ITERATION ITERATION          CHANGE                    MODEL-(CELLID)
 ---------------------------------------------------------------------------------------
 Linear Solver             1         5     3.83276                      1_GWF-(1,152,81)
 Under-relaxation          1               3.83276                      1_GWF-(1,152,81)
 Linear Solver             2         3    -1.83675                      1_GWF-(1,156,78)
 Under-relaxation          2              -1.65307                      1_GWF-(1,156,78)
 Linear Solver             3         2    9.774618E-02                  1_GWF-(1,46,108)
 Under-relaxation          3              9.774618E-02                  1_GWF-(1,46,108)
 Linear Solver             4         1    1.835524E-03                  1_GWF-(1,154,86)

 4 CALLS TO NUMERICAL SOLUTION IN TIME STEP 1 STRESS PERIOD 23
 11 TOTAL ITERATIONS


 OUTER ITERATION SUMMARY
 ---------------------------------------------------------------------------------------
                       OUTER     INNER         MAXIMUM                    MAXIMUM CHANGE
                   ITERATION ITERATION          CHANGE                    MODEL-(CELLID)
 ---------------------------------------------------------------------------------------
 Linear Solver             1         4     2.23266                      1_GWF-(1,46,108)
 Under-relaxation          1               2.23266                      1_GWF-(1,46,108)
 Linear Solver             2         3    0.425349                      1_GWF-(1,42,110)
 Under-relaxation          2              0.425349                      1_GWF-(1,42,110)
 Linear Solver             3         1   -2.460270E-03                  1_GWF-(1,157,84)

 3 CALLS TO NUMERICAL SOLUTION IN TIME STEP 2 STRESS PERIOD 23
 8 TOTAL ITERATIONS


 OUTER ITERATION SUMMARY
 ---------------------------------------------------------------------------------------
                       OUTER     INNER         MAXIMUM                    MAXIMUM CHANGE
                   ITERATION ITERATION          CHANGE                    MODEL-(CELLID)
 ---------------------------------------------------------------------------------------
 Linear Solver             1         3     1.18340                      1_GWF-(1,47,108)
 Under-relaxation          1               1.18340                      1_GWF-(1,47,108)
 Linear Solver             2         3    0.335259                      1_GWF-(1,49,105)
 Under-relaxation          2              0.335259                      1_GWF-(1,49,105)
 Linear Solver             3         1    9.271915E-03                  1_GWF-(1,138,81)

 3 CALLS TO NUMERICAL SOLUTION IN TIME STEP 3 STRESS PERIOD 23
 7 TOTAL ITERATIONS


 OUTER ITERATION SUMMARY
 ---------------------------------------------------------------------------------------
                       OUTER     INNER         MAXIMUM                    MAXIMUM CHANGE
                   ITERATION ITERATION          CHANGE                    MODEL-(CELLID)
 ---------------------------------------------------------------------------------------
 Linear Solver             1         3    0.947744                      1_GWF-(1,47,110)
 Under-relaxation          1              0.947744                      1_GWF-(1,47,110)
 Linear Solver             2         3    0.443899                      1_GWF-(1,36,114)
 Under-relaxation          2              0.443899                      1_GWF-(1,36,114)
 Linear Solver             3         1   -3.761587E-03                  1_GWF-(1,157,85)

 3 CALLS TO NUMERICAL SOLUTION IN TIME STEP 4 STRESS PERIOD 23
 7 TOTAL ITERATIONS


 OUTER ITERATION SUMMARY
 ---------------------------------------------------------------------------------------
                       OUTER     INNER         MAXIMUM                    MAXIMUM CHANGE
                   ITERATION ITERATION          CHANGE                    MODEL-(CELLID)
 ---------------------------------------------------------------------------------------
 Linear Solver             1         3     1.05375                      1_GWF-(1,37,113)
 Under-relaxation          1               1.05375                      1_GWF-(1,37,113)
 Linear Solver             2         3    0.969774                      1_GWF-(1,43,109)
 Under-relaxation          2              0.969774                      1_GWF-(1,43,109)
 Linear Solver             3         2    1.277429E-02                  1_GWF-(1,133,90)
 Under-relaxation          3              1.034717E-02                  1_GWF-(1,133,90)
 Linear Solver             4         1    1.798034E-03                  1_GWF-(1,133,90)

 4 CALLS TO NUMERICAL SOLUTION IN TIME STEP 5 STRESS PERIOD 23
 9 TOTAL ITERATIONS


 OUTER ITERATION SUMMARY
 ---------------------------------------------------------------------------------------
                       OUTER     INNER         MAXIMUM                    MAXIMUM CHANGE
                   ITERATION ITERATION          CHANGE                    MODEL-(CELLID)
 ---------------------------------------------------------------------------------------
 Linear Solver             1         3    0.908026                      1_GWF-(1,43,109)
 Under-relaxation          1              0.908026                      1_GWF-(1,43,109)
 Linear Solver             2         3    0.142083                      1_GWF-(1,133,90)
 Under-relaxation          2              0.142083                      1_GWF-(1,133,90)
 Linear Solver             3         1    1.915043E-03                  1_GWF-(1,110,15)

 3 CALLS TO NUMERICAL SOLUTION IN TIME STEP 6 STRESS PERIOD 23
 7 TOTAL ITERATIONS


 OUTER ITERATION SUMMARY
 ---------------------------------------------------------------------------------------
                       OUTER     INNER         MAXIMUM                    MAXIMUM CHANGE
                   ITERATION ITERATION          CHANGE                    MODEL-(CELLID)
 ---------------------------------------------------------------------------------------
 Linear Solver             1         3    0.643003                      1_GWF-(1,41,110)
 Under-relaxation          1              0.643003                      1_GWF-(1,41,110)
 Linear Solver             2         3    0.302679                      1_GWF-(1,160,75)
 Under-relaxation          2              0.302679                      1_GWF-(1,160,75)
 Linear Solver             3         1    1.856922E-03                  1_GWF-(1,110,15)

 3 CALLS TO NUMERICAL SOLUTION IN TIME STEP 7 STRESS PERIOD 23
 7 TOTAL ITERATIONS


 OUTER ITERATION SUMMARY
 ---------------------------------------------------------------------------------------
                       OUTER     INNER         MAXIMUM                    MAXIMUM CHANGE
                   ITERATION ITERATION          CHANGE                    MODEL-(CELLID)
 ---------------------------------------------------------------------------------------
 Linear Solver             1         3     1.68991                      1_GWF-(1,39,111)
 Under-relaxation          1               1.68991                      1_GWF-(1,39,111)
 Linear Solver             2         3     1.74194                      1_GWF-(1,151,80)
 Under-relaxation          2               1.74194                      1_GWF-(1,151,80)
 Linear Solver             3         2    8.727955E-02                  1_GWF-(1,148,79)
 Under-relaxation          3              7.069643E-02                  1_GWF-(1,148,79)
 Linear Solver             4         1    7.633165E-03                  1_GWF-(1,148,79)

 4 CALLS TO NUMERICAL SOLUTION IN TIME STEP 8 STRESS PERIOD 23
 9 TOTAL ITERATIONS


 OUTER ITERATION SUMMARY
 ---------------------------------------------------------------------------------------
                       OUTER     INNER         MAXIMUM                    MAXIMUM CHANGE
                   ITERATION ITERATION          CHANGE                    MODEL-(CELLID)
 ---------------------------------------------------------------------------------------
 Linear Solver             1         3     1.71124                      1_GWF-(1,38,112)
 Under-relaxation          1               1.71124                      1_GWF-(1,38,112)
 Linear Solver             2         3     1.46953                      1_GWF-(1,148,79)
 Under-relaxation          2               1.46953                      1_GWF-(1,148,79)
 Linear Solver             3         2    5.623666E-02                  1_GWF-(1,154,85)
 Under-relaxation          3              4.555170E-02                  1_GWF-(1,154,85)
 Linear Solver             4         1    6.915796E-03                  1_GWF-(1,154,85)

 4 CALLS TO NUMERICAL SOLUTION IN TIME STEP 9 STRESS PERIOD 23
 9 TOTAL ITERATIONS


 OUTER ITERATION SUMMARY
 ---------------------------------------------------------------------------------------
                       OUTER     INNER         MAXIMUM                    MAXIMUM CHANGE
                   ITERATION ITERATION          CHANGE                    MODEL-(CELLID)
 ---------------------------------------------------------------------------------------
 Linear Solver             1         4     1.84465                      1_GWF-(1,151,83)
 Under-relaxation          1               1.84465                      1_GWF-(1,151,83)
 Linear Solver             2         3     1.07490                      1_GWF-(1,41,110)
 Under-relaxation          2               1.07490                      1_GWF-(1,41,110)
 Linear Solver             3         1    3.431591E-03                  1_GWF-(1,165,59)

 3 CALLS TO NUMERICAL SOLUTION IN TIME STEP 10 STRESS PERIOD 23
 8 TOTAL ITERATIONS
1
                            STRESS PERIOD NO.   24, LENGTH =   2592000.    
                            -----------------------------------------------

                              NUMBER OF TIME STEPS =    10

                               MULTIPLIER FOR DELT =     1.000

                            INITIAL TIME STEP SIZE =   259200.0    


 OUTER ITERATION SUMMARY
 ---------------------------------------------------------------------------------------
                       OUTER     INNER         MAXIMUM                    MAXIMUM CHANGE
                   ITERATION ITERATION          CHANGE                    MODEL-(CELLID)
 ---------------------------------------------------------------------------------------
 Linear Solver             1         5    -1.88296                      1_GWF-(1,152,81)
 Under-relaxation          1              -1.88296                      1_GWF-(1,152,81)
 Linear Solver             2         2    0.105958                      1_GWF-(1,161,77)
 Under-relaxation          2              9.536249E-02                  1_GWF-(1,161,77)
 Linear Solver             3         1    2.596565E-03                  1_GWF-(1,161,77)

 3 CALLS TO NUMERICAL SOLUTION IN TIME STEP 1 STRESS PERIOD 24
 8 TOTAL ITERATIONS


 OUTER ITERATION SUMMARY
 ---------------------------------------------------------------------------------------
                       OUTER     INNER         MAXIMUM                    MAXIMUM CHANGE
                   ITERATION ITERATION          CHANGE                    MODEL-(CELLID)
 ---------------------------------------------------------------------------------------
 Linear Solver             1         3   -0.552097                      1_GWF-(1,47,113)
 Under-relaxation          1             -0.552097                      1_GWF-(1,47,113)
 Linear Solver             2         2    0.578314                      1_GWF-(1,45,107)
 Under-relaxation          2              0.578314                      1_GWF-(1,45,107)
 Linear Solver             3         2    2.103109E-02                  1_GWF-(1,45,108)
 Under-relaxation          3              1.893008E-02                  1_GWF-(1,45,108)
 Linear Solver             4         1    2.114697E-03                  1_GWF-(1,45,108)

 4 CALLS TO NUMERICAL SOLUTION IN TIME STEP 2 STRESS PERIOD 24
 8 TOTAL ITERATIONS


 OUTER ITERATION SUMMARY
 ---------------------------------------------------------------------------------------
                       OUTER     INNER         MAXIMUM                    MAXIMUM CHANGE
                   ITERATION ITERATION          CHANGE                    MODEL-(CELLID)
 ---------------------------------------------------------------------------------------
 Linear Solver             1         3    0.498860                      1_GWF-(1,45,107)
 Under-relaxation          1              0.498860                      1_GWF-(1,45,107)
 Linear Solver             2         2   -0.236048                      1_GWF-(1,151,82)
 Under-relaxation          2             -0.236048                      1_GWF-(1,151,82)
 Linear Solver             3         1   -3.004528E-03                  1_GWF-(1,152,83)

 3 CALLS TO NUMERICAL SOLUTION IN TIME STEP 3 STRESS PERIOD 24
 6 TOTAL ITERATIONS


 OUTER ITERATION SUMMARY
 ---------------------------------------------------------------------------------------
                       OUTER     INNER         MAXIMUM                    MAXIMUM CHANGE
                   ITERATION ITERATION          CHANGE                    MODEL-(CELLID)
 ---------------------------------------------------------------------------------------
 Linear Solver             1         3   -0.864344                      1_GWF-(1,151,82)
 Under-relaxation          1             -0.864344                      1_GWF-(1,151,82)
 Linear Solver             2         2   -1.452778E-02                  1_GWF-(1,151,78)
 Under-relaxation          2             -1.307500E-02                  1_GWF-(1,151,78)
 Linear Solver             3         1    8.191174E-04                  1_GWF-(1,151,80)

 3 CALLS TO NUMERICAL SOLUTION IN TIME STEP 4 STRESS PERIOD 24
 6 TOTAL ITERATIONS


 OUTER ITERATION SUMMARY
 ---------------------------------------------------------------------------------------
                       OUTER     INNER         MAXIMUM                    MAXIMUM CHANGE
                   ITERATION ITERATION          CHANGE                    MODEL-(CELLID)
 ---------------------------------------------------------------------------------------
 Linear Solver             1         2   -0.272821                      1_GWF-(1,48,114)
 Under-relaxation          1             -0.272821                      1_GWF-(1,48,114)
 Linear Solver             2         2   -2.871896E-02                  1_GWF-(1,167,73)
 Under-relaxation          2             -2.871896E-02                  1_GWF-(1,167,73)
 Linear Solver             3         1   -8.928230E-04                  1_GWF-(1,168,72)

 3 CALLS TO NUMERICAL SOLUTION IN TIME STEP 5 STRESS PERIOD 24
 5 TOTAL ITERATIONS


 OUTER ITERATION SUMMARY
 ---------------------------------------------------------------------------------------
                       OUTER     INNER         MAXIMUM                    MAXIMUM CHANGE
                   ITERATION ITERATION          CHANGE                    MODEL-(CELLID)
 ---------------------------------------------------------------------------------------
 Linear Solver             1         2    0.239515                      1_GWF-(1,43,107)
 Under-relaxation          1              0.239515                      1_GWF-(1,43,107)
 Linear Solver             2         2    0.437739                      1_GWF-(1,155,80)
 Under-relaxation          2              0.437739                      1_GWF-(1,155,80)
 Linear Solver             3         1   -2.295044E-03                  1_GWF-(1,155,80)

 3 CALLS TO NUMERICAL SOLUTION IN TIME STEP 6 STRESS PERIOD 24
 5 TOTAL ITERATIONS


 OUTER ITERATION SUMMARY
 ---------------------------------------------------------------------------------------
                       OUTER     INNER         MAXIMUM                    MAXIMUM CHANGE
                   ITERATION ITERATION          CHANGE                    MODEL-(CELLID)
 ---------------------------------------------------------------------------------------
 Linear Solver             1         2    0.223293                      1_GWF-(1,43,107)
 Under-relaxation          1              0.223293                      1_GWF-(1,43,107)
 Linear Solver             2         2   -1.253486E-02                  1_GWF-(1,151,78)
 Under-relaxation          2             -1.128137E-02                  1_GWF-(1,151,78)
 Linear Solver             3         1   -4.099233E-04                  1_GWF-(1,44,107)

 3 CALLS TO NUMERICAL SOLUTION IN TIME STEP 7 STRESS PERIOD 24
 5 TOTAL ITERATIONS


 OUTER ITERATION SUMMARY
 ---------------------------------------------------------------------------------------
                       OUTER     INNER         MAXIMUM                    MAXIMUM CHANGE
                   ITERATION ITERATION          CHANGE                    MODEL-(CELLID)
 ---------------------------------------------------------------------------------------
 Linear Solver             1         2    0.207936                      1_GWF-(1,43,107)
 Under-relaxation          1              0.207936                      1_GWF-(1,43,107)
 Linear Solver             2         2   -1.203252E-02                  1_GWF-(1,151,78)
 Under-relaxation          2             -1.082927E-02                  1_GWF-(1,151,78)
 Linear Solver             3         1   -3.812948E-04                  1_GWF-(1,44,107)

 3 CALLS TO NUMERICAL SOLUTION IN TIME STEP 8 STRESS PERIOD 24
 5 TOTAL ITERATIONS


 OUTER ITERATION SUMMARY
 ---------------------------------------------------------------------------------------
                       OUTER     INNER         MAXIMUM                    MAXIMUM CHANGE
                   ITERATION ITERATION          CHANGE                    MODEL-(CELLID)
 ---------------------------------------------------------------------------------------
 Linear Solver             1         2    0.193828                      1_GWF-(1,43,107)
 Under-relaxation          1              0.193828                      1_GWF-(1,43,107)
 Linear Solver             2         2   -2.653797E-02                  1_GWF-(1,106,19)
 Under-relaxation          2             -2.653797E-02                  1_GWF-(1,106,19)
 Linear Solver             3         1   -3.618989E-04                  1_GWF-(1,43,107)

 3 CALLS TO NUMERICAL SOLUTION IN TIME STEP 9 STRESS PERIOD 24
 5 TOTAL ITERATIONS


 OUTER ITERATION SUMMARY
 ---------------------------------------------------------------------------------------
                       OUTER     INNER         MAXIMUM                    MAXIMUM CHANGE
                   ITERATION ITERATION          CHANGE                    MODEL-(CELLID)
 ---------------------------------------------------------------------------------------
 Linear Solver             1         2    0.181064                      1_GWF-(1,43,107)
 Under-relaxation          1              0.181064                      1_GWF-(1,43,107)
 Linear Solver             2         2    2.543766E-02                  1_GWF-(1,49,104)
 Under-relaxation          2              2.543766E-02                  1_GWF-(1,49,104)
 Linear Solver             3         1    5.830944E-04                  1_GWF-(1,49,106)

 3 CALLS TO NUMERICAL SOLUTION IN TIME STEP 10 STRESS PERIOD 24
 5 TOTAL ITERATIONS

 INFORMATION ON VARIABLES STORED IN THE MEMORY MANAGER
 
 Number of allocated integer variables:   594517
 Number of allocated real variables:    722377
 Allocated memory in megabytes:     8.15708    
 

 Run end date and time (yyyy/mm/dd hh:mm:ss): 2020/04/22 17:52:51
 Elapsed run time: 27.899 Seconds

 Normal termination of simulation.
