                                   MODFLOW 6
                U.S. GEOLOGICAL SURVEY MODULAR HYDROLOGIC MODEL
                            VERSION 6.0.4 03/13/2019

   MODFLOW 6 compiled Mar 21 2019 15:37:31 with IFORT compiler (ver. 19.0.0)

This software has been approved for release by the U.S. Geological 
Survey (USGS). Although the software has been subjected to rigorous 
review, the USGS reserves the right to update the software as needed 
pursuant to further analysis and review. No warranty, expressed or 
implied, is made by the USGS or the U.S. Government as to the 
functionality of the software and related material nor shall the 
fact of release constitute any such warranty. Furthermore, the 
software is released on condition that neither the USGS nor the U.S. 
Government shall be held liable for any damages resulting from its 
authorized or unauthorized use. Also refer to the USGS Water 
Resources Software User Rights Notice for complete use, copyright, 
and distribution information.


System command used to initiate simulation:
../../exe/mf6

MODFLOW was compiled using uniform precision.
Real Variables
  PRECISION: 15
  KIND: 8
  TINY (smallest non-zero value):    2.225074-308
  HUGE (largest value):    1.797693+308
Integer Variables
  KIND: 4
  HUGE (largest value): 2147483647
  BIT_SIZE: 32
 

 OPENED mfsim.nam
 FILE TYPE:NAM   UNIT 1001   STATUS:OLD                 
 FORMAT:FORMATTED              ACCESS:SEQUENTIAL          
 ACTION:READ                


 READING SIMULATION OPTIONS
 END OF SIMULATION OPTIONS

 READING SIMULATION TIMING

 OPENED first2D_mf6.tdis
 FILE TYPE:TDIS   UNIT 1002   STATUS:OLD                 
 FORMAT:FORMATTED              ACCESS:SEQUENTIAL          
 ACTION:READ                


 TDIS -- TEMPORAL DISCRETIZATION PACKAGE,
 VERSION 1 : 11/13/2014 - INPUT READ FROM UNIT 1002
 PROCESSING TDIS OPTIONS
    SIMULATION TIME UNIT IS SECONDS
 END OF TDIS OPTIONS
 PROCESSING TDIS DIMENSIONS
   24 STRESS PERIOD(S) IN SIMULATION
 END OF TDIS DIMENSIONS
 PROCESSING TDIS PERIODDATA


 STRESS PERIOD     LENGTH       TIME STEPS     MULTIPLIER FOR DELT
 ----------------------------------------------------------------------------
        1         1.000000          1                    1.000
        2         2592000.          5                    1.000
        3         2592000.          5                    1.000
        4         2592000.          5                    1.000
        5         2592000.          5                    1.000
        6         2592000.          5                    1.000
        7         2592000.          5                    1.000
        8         2592000.          5                    1.000
        9         2592000.          5                    1.000
       10         2592000.          5                    1.000
       11         2592000.          5                    1.000
       12         2592000.          5                    1.000
       13         2592000.          5                    1.000
       14         2592000.          5                    1.000
       15         2592000.          5                    1.000
       16         2592000.          5                    1.000
       17         2592000.          5                    1.000
       18         2592000.          5                    1.000
       19         2592000.          5                    1.000
       20         2592000.          5                    1.000
       21         2592000.          5                    1.000
       22         2592000.          5                    1.000
       23         2592000.          5                    1.000
       24         2592000.          5                    1.000
 END OF TDIS PERIODDATA
 END OF SIMULATION TIMING

 READING SIMULATION MODELS
    GWF6 model 2D_TRANS will be created as model 1
 END OF SIMULATION MODELS

 READING SIMULATION EXCHANGES
 END OF SIMULATION EXCHANGES

 READING SOLUTIONGROUP

 Creating solution: SLN_1           

 OPENED first2D_mf6.ims
 FILE TYPE:IMS   UNIT 1020   STATUS:OLD                 
 FORMAT:FORMATTED              ACCESS:SEQUENTIAL          
 ACTION:READ                

 END OF SIMULATION SOLUTIONGROUP

 IMS -- ITERATIVE MODEL SOLUTION PACKAGE, VERSION 6, 4/28/2017
         INPUT READ FROM UNIT 1020

 PROCESSING IMS OPTIONS
 MODERATE OPTION:
 DEFAULT SOLVER INPUT VALUES REFLECT MODERETELY NONLINEAR MODEL
 END OF IMS OPTIONS
 **UNDER-RELAXATION WILL BE USED***
 
 ***IMS LINEAR SOLVER WILL BE USED***

 IMSLINEAR -- UNSTRUCTURED LINEAR SOLUTION PACKAGE, VERSION 8, 04/28/2017
 
 OUTER ITERATION CONVERGENCE CRITERION     (HCLOSE) =    0.100000E-01
 OUTER ITERATION BOUNDARY FLOW RESIDUAL (RCLOSEBND) =    0.100000E+00
 MAXIMUM NUMBER OF OUTER ITERATIONS        (MXITER) =        50
 SOLVER PRINTOUT INDEX                     (IPRIMS) =         1
 NONLINEAR ITERATION METHOD            (NONLINMETH) =         3
 LINEAR SOLUTION METHOD                   (LINMETH) =         1
 UNDER-RELAXATION WEIGHT REDUCTION FACTOR   (THETA) =    0.900000E+00
 UNDER-RELAXATION WEIGHT INCREASE INCREMENT (KAPPA) =    0.100000E-03
 UNDER-RELAXATION PREVIOUS HISTORY FACTOR   (GAMMA) =    0.000000E+00
 UNDER-RELAXATIONMOMENTUM TERM          (AMOMENTUM) =    0.000000E+00
    MAXIMUM NUMBER OF BACKTRACKS         (NUMTRACK) =         0

       SOLUTION BY THE BICONJUGATE-GRADIENT STABILIZED METHOD
 ------------------------------------------------------------------
 MAXIMUM OF     50 CALLS OF SOLUTION ROUTINE
 MAXIMUM OF    100 INTERNAL ITERATIONS PER CALL TO SOLUTION ROUTINE
 LINEAR ACCELERATION METHOD            = BCGS      
 MATRIX PRECONDITIONING TYPE           = MOD. INCOMPLETE LU  
 MATRIX SCALING APPROACH               = NO SCALING          
 MATRIX REORDERING APPROACH            = ORIGINAL ORDERING        
 NUMBER OF ORTHOGONALIZATIONS          =        0
 HEAD CHANGE CRITERION FOR CLOSURE     =    0.10000E-01
 RESIDUAL CHANGE CRITERION FOR CLOSURE =    0.10000E+00
 RESIDUAL CONVERGENCE OPTION           =        0
 RESIDUAL CONVERGENCE NORM             = INFINITY NORM   
 RELAXATION FACTOR                     =    0.97000E+00



1
                            STRESS PERIOD NO.    1, LENGTH =   1.000000    
                            -----------------------------------------------

                              NUMBER OF TIME STEPS =     1

                               MULTIPLIER FOR DELT =     1.000

                            INITIAL TIME STEP SIZE =   1.000000    


 OUTER ITERATION SUMMARY
 ---------------------------------------------------------------------------------------
                       OUTER     INNER         MAXIMUM                    MAXIMUM CHANGE
                   ITERATION ITERATION          CHANGE                    MODEL-(CELLID)
 ---------------------------------------------------------------------------------------
 Linear Solver             1        29     284.698                     1_GWF-(1,109,143)
 Under-relaxation          1               284.698                     1_GWF-(1,109,143)
 Linear Solver             2         1    2.015147E-04                   1_GWF-(1,72,71)

 2 CALLS TO NUMERICAL SOLUTION IN TIME STEP 1 STRESS PERIOD 1
 30 TOTAL ITERATIONS
1
                            STRESS PERIOD NO.    2, LENGTH =   2592000.    
                            -----------------------------------------------

                              NUMBER OF TIME STEPS =     5

                               MULTIPLIER FOR DELT =     1.000

                            INITIAL TIME STEP SIZE =   518400.0    


 OUTER ITERATION SUMMARY
 ---------------------------------------------------------------------------------------
                       OUTER     INNER         MAXIMUM                    MAXIMUM CHANGE
                   ITERATION ITERATION          CHANGE                    MODEL-(CELLID)
 ---------------------------------------------------------------------------------------
 Linear Solver             1         4     4.92740                      1_GWF-(1,100,57)
 Under-relaxation          1               4.92740                      1_GWF-(1,100,57)
 Linear Solver             2         2   -0.113433                       1_GWF-(1,94,45)
 Under-relaxation          2              0.111106                      1_GWF-(1,118,85)
 Linear Solver             3         1   -7.134219E-03                  1_GWF-(1,100,57)

 3 CALLS TO NUMERICAL SOLUTION IN TIME STEP 1 STRESS PERIOD 2
 7 TOTAL ITERATIONS


 OUTER ITERATION SUMMARY
 ---------------------------------------------------------------------------------------
                       OUTER     INNER         MAXIMUM                    MAXIMUM CHANGE
                   ITERATION ITERATION          CHANGE                    MODEL-(CELLID)
 ---------------------------------------------------------------------------------------
 Linear Solver             1         3     1.60237                      1_GWF-(1,100,57)
 Under-relaxation          1               1.60237                      1_GWF-(1,100,57)
 Linear Solver             2         2    0.128094                      1_GWF-(1,45,107)
 Under-relaxation          2              0.128094                      1_GWF-(1,45,107)
 Linear Solver             3         1   -3.246294E-03                  1_GWF-(1,100,57)

 3 CALLS TO NUMERICAL SOLUTION IN TIME STEP 2 STRESS PERIOD 2
 6 TOTAL ITERATIONS


 OUTER ITERATION SUMMARY
 ---------------------------------------------------------------------------------------
                       OUTER     INNER         MAXIMUM                    MAXIMUM CHANGE
                   ITERATION ITERATION          CHANGE                    MODEL-(CELLID)
 ---------------------------------------------------------------------------------------
 Linear Solver             1         3    0.809113                      1_GWF-(1,100,57)
 Under-relaxation          1              0.809113                      1_GWF-(1,100,57)
 Linear Solver             2         2    4.384596E-02                 1_GWF-(1,125,117)
 Under-relaxation          2              4.384596E-02                 1_GWF-(1,125,117)
 Linear Solver             3         1   -1.964842E-03                  1_GWF-(1,100,57)

 3 CALLS TO NUMERICAL SOLUTION IN TIME STEP 3 STRESS PERIOD 2
 6 TOTAL ITERATIONS


 OUTER ITERATION SUMMARY
 ---------------------------------------------------------------------------------------
                       OUTER     INNER         MAXIMUM                    MAXIMUM CHANGE
                   ITERATION ITERATION          CHANGE                    MODEL-(CELLID)
 ---------------------------------------------------------------------------------------
 Linear Solver             1         3    0.530137                      1_GWF-(1,100,57)
 Under-relaxation          1              0.530137                      1_GWF-(1,100,57)
 Linear Solver             2         2    6.770037E-02                 1_GWF-(1,126,111)
 Under-relaxation          2              6.770037E-02                 1_GWF-(1,126,111)
 Linear Solver             3         1   -1.386705E-03                  1_GWF-(1,100,57)

 3 CALLS TO NUMERICAL SOLUTION IN TIME STEP 4 STRESS PERIOD 2
 6 TOTAL ITERATIONS


 OUTER ITERATION SUMMARY
 ---------------------------------------------------------------------------------------
                       OUTER     INNER         MAXIMUM                    MAXIMUM CHANGE
                   ITERATION ITERATION          CHANGE                    MODEL-(CELLID)
 ---------------------------------------------------------------------------------------
 Linear Solver             1         2    0.393645                      1_GWF-(1,100,57)
 Under-relaxation          1              0.393645                      1_GWF-(1,100,57)
 Linear Solver             2         2    2.527455E-02                   1_GWF-(1,69,96)
 Under-relaxation          2              2.527455E-02                   1_GWF-(1,69,96)
 Linear Solver             3         1   -1.072856E-03                  1_GWF-(1,100,57)

 3 CALLS TO NUMERICAL SOLUTION IN TIME STEP 5 STRESS PERIOD 2
 5 TOTAL ITERATIONS
1
                            STRESS PERIOD NO.    3, LENGTH =   2592000.    
                            -----------------------------------------------

                              NUMBER OF TIME STEPS =     5

                               MULTIPLIER FOR DELT =     1.000

                            INITIAL TIME STEP SIZE =   518400.0    


 OUTER ITERATION SUMMARY
 ---------------------------------------------------------------------------------------
                       OUTER     INNER         MAXIMUM                    MAXIMUM CHANGE
                   ITERATION ITERATION          CHANGE                    MODEL-(CELLID)
 ---------------------------------------------------------------------------------------
 Linear Solver             1         3   -0.567674                       1_GWF-(1,94,45)
 Under-relaxation          1             -0.567674                       1_GWF-(1,94,45)
 Linear Solver             2         2    1.458664E-02                 1_GWF-(1,127,111)
 Under-relaxation          2              1.458664E-02                 1_GWF-(1,127,111)
 Linear Solver             3         1    8.824383E-04                   1_GWF-(1,94,45)

 3 CALLS TO NUMERICAL SOLUTION IN TIME STEP 1 STRESS PERIOD 3
 6 TOTAL ITERATIONS


 OUTER ITERATION SUMMARY
 ---------------------------------------------------------------------------------------
                       OUTER     INNER         MAXIMUM                    MAXIMUM CHANGE
                   ITERATION ITERATION          CHANGE                    MODEL-(CELLID)
 ---------------------------------------------------------------------------------------
 Linear Solver             1         3   -0.175498                      1_GWF-(1,47,112)
 Under-relaxation          1             -0.175498                      1_GWF-(1,47,112)
 Linear Solver             2         2    1.934935E-02                 1_GWF-(1,125,113)
 Under-relaxation          2              1.934935E-02                 1_GWF-(1,125,113)
 Linear Solver             3         1    4.156202E-04                  1_GWF-(1,100,57)

 3 CALLS TO NUMERICAL SOLUTION IN TIME STEP 2 STRESS PERIOD 3
 6 TOTAL ITERATIONS


 OUTER ITERATION SUMMARY
 ---------------------------------------------------------------------------------------
                       OUTER     INNER         MAXIMUM                    MAXIMUM CHANGE
                   ITERATION ITERATION          CHANGE                    MODEL-(CELLID)
 ---------------------------------------------------------------------------------------
 Linear Solver             1         3   -0.119299                      1_GWF-(1,47,112)
 Under-relaxation          1             -0.119299                      1_GWF-(1,47,112)
 Linear Solver             2         1    8.542972E-03                 1_GWF-(1,128,111)

 2 CALLS TO NUMERICAL SOLUTION IN TIME STEP 3 STRESS PERIOD 3
 4 TOTAL ITERATIONS


 OUTER ITERATION SUMMARY
 ---------------------------------------------------------------------------------------
                       OUTER     INNER         MAXIMUM                    MAXIMUM CHANGE
                   ITERATION ITERATION          CHANGE                    MODEL-(CELLID)
 ---------------------------------------------------------------------------------------
 Linear Solver             1         2    0.114857                     1_GWF-(1,128,111)
 Under-relaxation          1              0.114857                     1_GWF-(1,128,111)
 Linear Solver             2         1   -7.243197E-03                  1_GWF-(1,102,55)

 2 CALLS TO NUMERICAL SOLUTION IN TIME STEP 4 STRESS PERIOD 3
 3 TOTAL ITERATIONS


 OUTER ITERATION SUMMARY
 ---------------------------------------------------------------------------------------
                       OUTER     INNER         MAXIMUM                    MAXIMUM CHANGE
                   ITERATION ITERATION          CHANGE                    MODEL-(CELLID)
 ---------------------------------------------------------------------------------------
 Linear Solver             1         2    8.659953E-02                  1_GWF-(1,102,56)
 Under-relaxation          1              8.659953E-02                  1_GWF-(1,102,56)
 Linear Solver             2         2    2.299609E-02                 1_GWF-(1,125,112)
 Under-relaxation          2              2.299609E-02                 1_GWF-(1,125,112)
 Linear Solver             3         1    3.724847E-04                  1_GWF-(1,61,113)

 3 CALLS TO NUMERICAL SOLUTION IN TIME STEP 5 STRESS PERIOD 3
 5 TOTAL ITERATIONS
1
                            STRESS PERIOD NO.    4, LENGTH =   2592000.    
                            -----------------------------------------------

                              NUMBER OF TIME STEPS =     5

                               MULTIPLIER FOR DELT =     1.000

                            INITIAL TIME STEP SIZE =   518400.0    


 OUTER ITERATION SUMMARY
 ---------------------------------------------------------------------------------------
                       OUTER     INNER         MAXIMUM                    MAXIMUM CHANGE
                   ITERATION ITERATION          CHANGE                    MODEL-(CELLID)
 ---------------------------------------------------------------------------------------
 Linear Solver             1         3   -0.203583                      1_GWF-(1,151,81)
 Under-relaxation          1             -0.203583                      1_GWF-(1,151,81)
 Linear Solver             2         2    3.734715E-02                  1_GWF-(1,154,85)
 Under-relaxation          2              3.361243E-02                  1_GWF-(1,154,85)
 Linear Solver             3         1    1.015189E-03                  1_GWF-(1,154,85)

 3 CALLS TO NUMERICAL SOLUTION IN TIME STEP 1 STRESS PERIOD 4
 6 TOTAL ITERATIONS


 OUTER ITERATION SUMMARY
 ---------------------------------------------------------------------------------------
                       OUTER     INNER         MAXIMUM                    MAXIMUM CHANGE
                   ITERATION ITERATION          CHANGE                    MODEL-(CELLID)
 ---------------------------------------------------------------------------------------
 Linear Solver             1         2   -0.101347                      1_GWF-(1,46,110)
 Under-relaxation          1             -0.101347                      1_GWF-(1,46,110)
 Linear Solver             2         2    2.293860E-02                  1_GWF-(1,45,107)
 Under-relaxation          2              2.064474E-02                  1_GWF-(1,45,107)
 Linear Solver             3         1    1.824337E-03                  1_GWF-(1,45,107)

 3 CALLS TO NUMERICAL SOLUTION IN TIME STEP 2 STRESS PERIOD 4
 5 TOTAL ITERATIONS


 OUTER ITERATION SUMMARY
 ---------------------------------------------------------------------------------------
                       OUTER     INNER         MAXIMUM                    MAXIMUM CHANGE
                   ITERATION ITERATION          CHANGE                    MODEL-(CELLID)
 ---------------------------------------------------------------------------------------
 Linear Solver             1         2   -8.012691E-02                  1_GWF-(1,39,111)
 Under-relaxation          1             -8.012691E-02                  1_GWF-(1,39,111)
 Linear Solver             2         2   -2.463735E-02                  1_GWF-(1,164,78)
 Under-relaxation          2             -2.463735E-02                  1_GWF-(1,164,78)
 Linear Solver             3         1   -2.881571E-04                  1_GWF-(1,164,78)

 3 CALLS TO NUMERICAL SOLUTION IN TIME STEP 3 STRESS PERIOD 4
 5 TOTAL ITERATIONS


 OUTER ITERATION SUMMARY
 ---------------------------------------------------------------------------------------
                       OUTER     INNER         MAXIMUM                    MAXIMUM CHANGE
                   ITERATION ITERATION          CHANGE                    MODEL-(CELLID)
 ---------------------------------------------------------------------------------------
 Linear Solver             1         2   -7.272087E-02                  1_GWF-(1,39,111)
 Under-relaxation          1             -7.272087E-02                  1_GWF-(1,39,111)
 Linear Solver             2         2    1.750398E-02                 1_GWF-(1,127,114)
 Under-relaxation          2              1.750398E-02                 1_GWF-(1,127,114)
 Linear Solver             3         1   -2.148943E-04                  1_GWF-(1,110,15)

 3 CALLS TO NUMERICAL SOLUTION IN TIME STEP 4 STRESS PERIOD 4
 5 TOTAL ITERATIONS


 OUTER ITERATION SUMMARY
 ---------------------------------------------------------------------------------------
                       OUTER     INNER         MAXIMUM                    MAXIMUM CHANGE
                   ITERATION ITERATION          CHANGE                    MODEL-(CELLID)
 ---------------------------------------------------------------------------------------
 Linear Solver             1         2   -6.500004E-02                  1_GWF-(1,39,111)
 Under-relaxation          1             -6.500004E-02                  1_GWF-(1,39,111)
 Linear Solver             2         1    7.894877E-03                  1_GWF-(1,44,108)

 2 CALLS TO NUMERICAL SOLUTION IN TIME STEP 5 STRESS PERIOD 4
 3 TOTAL ITERATIONS
1
                            STRESS PERIOD NO.    5, LENGTH =   2592000.    
                            -----------------------------------------------

                              NUMBER OF TIME STEPS =     5

                               MULTIPLIER FOR DELT =     1.000

                            INITIAL TIME STEP SIZE =   518400.0    


 OUTER ITERATION SUMMARY
 ---------------------------------------------------------------------------------------
                       OUTER     INNER         MAXIMUM                    MAXIMUM CHANGE
                   ITERATION ITERATION          CHANGE                    MODEL-(CELLID)
 ---------------------------------------------------------------------------------------
 Linear Solver             1         4    -2.66469                      1_GWF-(1,100,57)
 Under-relaxation          1              -2.66469                      1_GWF-(1,100,57)
 Linear Solver             2         2    0.443853                      1_GWF-(1,151,80)
 Under-relaxation          2              0.443853                      1_GWF-(1,151,80)
 Linear Solver             3         1    4.858317E-03                 1_GWF-(1,127,114)

 3 CALLS TO NUMERICAL SOLUTION IN TIME STEP 1 STRESS PERIOD 5
 7 TOTAL ITERATIONS


 OUTER ITERATION SUMMARY
 ---------------------------------------------------------------------------------------
                       OUTER     INNER         MAXIMUM                    MAXIMUM CHANGE
                   ITERATION ITERATION          CHANGE                    MODEL-(CELLID)
 ---------------------------------------------------------------------------------------
 Linear Solver             1         3   -0.811900                      1_GWF-(1,100,57)
 Under-relaxation          1             -0.811900                      1_GWF-(1,100,57)
 Linear Solver             2         2    0.161238                      1_GWF-(1,154,85)
 Under-relaxation          2              0.161238                      1_GWF-(1,154,85)
 Linear Solver             3         1    1.515045E-03                  1_GWF-(1,100,57)

 3 CALLS TO NUMERICAL SOLUTION IN TIME STEP 2 STRESS PERIOD 5
 6 TOTAL ITERATIONS


 OUTER ITERATION SUMMARY
 ---------------------------------------------------------------------------------------
                       OUTER     INNER         MAXIMUM                    MAXIMUM CHANGE
                   ITERATION ITERATION          CHANGE                    MODEL-(CELLID)
 ---------------------------------------------------------------------------------------
 Linear Solver             1         3   -0.370238                      1_GWF-(1,100,57)
 Under-relaxation          1             -0.370238                      1_GWF-(1,100,57)
 Linear Solver             2         2   -2.017371E-02                   1_GWF-(1,88,42)
 Under-relaxation          2             -1.815634E-02                   1_GWF-(1,88,42)
 Linear Solver             3         1    9.134493E-04                  1_GWF-(1,100,57)

 3 CALLS TO NUMERICAL SOLUTION IN TIME STEP 3 STRESS PERIOD 5
 6 TOTAL ITERATIONS


 OUTER ITERATION SUMMARY
 ---------------------------------------------------------------------------------------
                       OUTER     INNER         MAXIMUM                    MAXIMUM CHANGE
                   ITERATION ITERATION          CHANGE                    MODEL-(CELLID)
 ---------------------------------------------------------------------------------------
 Linear Solver             1         3    0.249256                      1_GWF-(1,47,110)
 Under-relaxation          1              0.249256                      1_GWF-(1,47,110)
 Linear Solver             2         2   -1.843415E-02                  1_GWF-(1,150,79)
 Under-relaxation          2             -1.659074E-02                  1_GWF-(1,150,79)
 Linear Solver             3         1    5.657139E-04                  1_GWF-(1,110,15)

 3 CALLS TO NUMERICAL SOLUTION IN TIME STEP 4 STRESS PERIOD 5
 6 TOTAL ITERATIONS


 OUTER ITERATION SUMMARY
 ---------------------------------------------------------------------------------------
                       OUTER     INNER         MAXIMUM                    MAXIMUM CHANGE
                   ITERATION ITERATION          CHANGE                    MODEL-(CELLID)
 ---------------------------------------------------------------------------------------
 Linear Solver             1         3    0.203350                      1_GWF-(1,41,110)
 Under-relaxation          1              0.203350                      1_GWF-(1,41,110)
 Linear Solver             2         2    7.563145E-02                  1_GWF-(1,39,111)
 Under-relaxation          2              7.563145E-02                  1_GWF-(1,39,111)
 Linear Solver             3         1    5.294268E-04                  1_GWF-(1,110,15)

 3 CALLS TO NUMERICAL SOLUTION IN TIME STEP 5 STRESS PERIOD 5
 6 TOTAL ITERATIONS
1
                            STRESS PERIOD NO.    6, LENGTH =   2592000.    
                            -----------------------------------------------

                              NUMBER OF TIME STEPS =     5

                               MULTIPLIER FOR DELT =     1.000

                            INITIAL TIME STEP SIZE =   518400.0    


 OUTER ITERATION SUMMARY
 ---------------------------------------------------------------------------------------
                       OUTER     INNER         MAXIMUM                    MAXIMUM CHANGE
                   ITERATION ITERATION          CHANGE                    MODEL-(CELLID)
 ---------------------------------------------------------------------------------------
 Linear Solver             1         3    -2.25769                      1_GWF-(1,100,57)
 Under-relaxation          1              -2.25769                      1_GWF-(1,100,57)
 Linear Solver             2         2    8.077869E-02                 1_GWF-(1,125,117)
 Under-relaxation          2              7.270082E-02                 1_GWF-(1,125,117)
 Linear Solver             3         1    7.724493E-03                 1_GWF-(1,125,117)

 3 CALLS TO NUMERICAL SOLUTION IN TIME STEP 1 STRESS PERIOD 6
 6 TOTAL ITERATIONS


 OUTER ITERATION SUMMARY
 ---------------------------------------------------------------------------------------
                       OUTER     INNER         MAXIMUM                    MAXIMUM CHANGE
                   ITERATION ITERATION          CHANGE                    MODEL-(CELLID)
 ---------------------------------------------------------------------------------------
 Linear Solver             1         3   -0.791243                      1_GWF-(1,100,57)
 Under-relaxation          1             -0.791243                      1_GWF-(1,100,57)
 Linear Solver             2         2    2.886475E-02                  1_GWF-(1,100,57)
 Under-relaxation          2              2.597828E-02                  1_GWF-(1,100,57)
 Linear Solver             3         1    2.627589E-03                 1_GWF-(1,125,113)

 3 CALLS TO NUMERICAL SOLUTION IN TIME STEP 2 STRESS PERIOD 6
 6 TOTAL ITERATIONS


 OUTER ITERATION SUMMARY
 ---------------------------------------------------------------------------------------
                       OUTER     INNER         MAXIMUM                    MAXIMUM CHANGE
                   ITERATION ITERATION          CHANGE                    MODEL-(CELLID)
 ---------------------------------------------------------------------------------------
 Linear Solver             1         2   -0.426277                      1_GWF-(1,100,57)
 Under-relaxation          1             -0.426277                      1_GWF-(1,100,57)
 Linear Solver             2         2    2.009045E-02                  1_GWF-(1,100,56)
 Under-relaxation          2              1.808140E-02                  1_GWF-(1,100,56)
 Linear Solver             3         1    9.558778E-04                  1_GWF-(1,100,57)

 3 CALLS TO NUMERICAL SOLUTION IN TIME STEP 3 STRESS PERIOD 6
 5 TOTAL ITERATIONS


 OUTER ITERATION SUMMARY
 ---------------------------------------------------------------------------------------
                       OUTER     INNER         MAXIMUM                    MAXIMUM CHANGE
                   ITERATION ITERATION          CHANGE                    MODEL-(CELLID)
 ---------------------------------------------------------------------------------------
 Linear Solver             1         2   -0.289692                      1_GWF-(1,100,57)
 Under-relaxation          1             -0.289692                      1_GWF-(1,100,57)
 Linear Solver             2         2    1.574016E-02                  1_GWF-(1,100,56)
 Under-relaxation          2              1.416614E-02                  1_GWF-(1,100,56)
 Linear Solver             3         1    6.566967E-04                  1_GWF-(1,100,57)

 3 CALLS TO NUMERICAL SOLUTION IN TIME STEP 4 STRESS PERIOD 6
 5 TOTAL ITERATIONS


 OUTER ITERATION SUMMARY
 ---------------------------------------------------------------------------------------
                       OUTER     INNER         MAXIMUM                    MAXIMUM CHANGE
                   ITERATION ITERATION          CHANGE                    MODEL-(CELLID)
 ---------------------------------------------------------------------------------------
 Linear Solver             1         2   -0.218264                      1_GWF-(1,100,57)
 Under-relaxation          1             -0.218264                      1_GWF-(1,100,57)
 Linear Solver             2         2    2.663358E-02                 1_GWF-(1,124,111)
 Under-relaxation          2              2.397022E-02                 1_GWF-(1,124,111)
 Linear Solver             3         1    2.164979E-03                 1_GWF-(1,124,111)

 3 CALLS TO NUMERICAL SOLUTION IN TIME STEP 5 STRESS PERIOD 6
 5 TOTAL ITERATIONS
1
                            STRESS PERIOD NO.    7, LENGTH =   2592000.    
                            -----------------------------------------------

                              NUMBER OF TIME STEPS =     5

                               MULTIPLIER FOR DELT =     1.000

                            INITIAL TIME STEP SIZE =   518400.0    


 OUTER ITERATION SUMMARY
 ---------------------------------------------------------------------------------------
                       OUTER     INNER         MAXIMUM                    MAXIMUM CHANGE
                   ITERATION ITERATION          CHANGE                    MODEL-(CELLID)
 ---------------------------------------------------------------------------------------
 Linear Solver             1         5    -6.84281                      1_GWF-(1,100,57)
 Under-relaxation          1              -6.84281                      1_GWF-(1,100,57)
 Linear Solver             2         3     1.55456                      1_GWF-(1,151,83)
 Under-relaxation          2               1.39910                      1_GWF-(1,151,83)
 Linear Solver             3         2    5.535610E-02                 1_GWF-(1,127,115)
 Under-relaxation          3              4.982603E-02                 1_GWF-(1,127,115)
 Linear Solver             4         1    5.183505E-03                 1_GWF-(1,127,115)

 4 CALLS TO NUMERICAL SOLUTION IN TIME STEP 1 STRESS PERIOD 7
 11 TOTAL ITERATIONS


 OUTER ITERATION SUMMARY
 ---------------------------------------------------------------------------------------
                       OUTER     INNER         MAXIMUM                    MAXIMUM CHANGE
                   ITERATION ITERATION          CHANGE                    MODEL-(CELLID)
 ---------------------------------------------------------------------------------------
 Linear Solver             1         4    -2.35578                      1_GWF-(1,100,57)
 Under-relaxation          1              -2.35578                      1_GWF-(1,100,57)
 Linear Solver             2         3    0.157364                     1_GWF-(1,126,116)
 Under-relaxation          2              0.141628                     1_GWF-(1,126,116)
 Linear Solver             3         2    2.326410E-02                 1_GWF-(1,126,115)
 Under-relaxation          3              2.094002E-02                 1_GWF-(1,126,115)
 Linear Solver             4         1    2.216170E-03                 1_GWF-(1,126,115)

 4 CALLS TO NUMERICAL SOLUTION IN TIME STEP 2 STRESS PERIOD 7
 10 TOTAL ITERATIONS


 OUTER ITERATION SUMMARY
 ---------------------------------------------------------------------------------------
                       OUTER     INNER         MAXIMUM                    MAXIMUM CHANGE
                   ITERATION ITERATION          CHANGE                    MODEL-(CELLID)
 ---------------------------------------------------------------------------------------
 Linear Solver             1         3    -1.26540                      1_GWF-(1,100,57)
 Under-relaxation          1              -1.26540                      1_GWF-(1,100,57)
 Linear Solver             2         2    0.110321                      1_GWF-(1,37,113)
 Under-relaxation          2              9.928876E-02                  1_GWF-(1,37,113)
 Linear Solver             3         2   -1.300677E-02                  1_GWF-(1,164,60)
 Under-relaxation          3             -1.053549E-02                  1_GWF-(1,164,60)
 Linear Solver             4         1   -1.231115E-03                  1_GWF-(1,164,60)

 4 CALLS TO NUMERICAL SOLUTION IN TIME STEP 3 STRESS PERIOD 7
 8 TOTAL ITERATIONS


 OUTER ITERATION SUMMARY
 ---------------------------------------------------------------------------------------
                       OUTER     INNER         MAXIMUM                    MAXIMUM CHANGE
                   ITERATION ITERATION          CHANGE                    MODEL-(CELLID)
 ---------------------------------------------------------------------------------------
 Linear Solver             1         3   -0.870875                      1_GWF-(1,100,57)
 Under-relaxation          1             -0.870875                      1_GWF-(1,100,57)
 Linear Solver             2         2    0.165276                      1_GWF-(1,46,108)
 Under-relaxation          2              0.148749                      1_GWF-(1,46,108)
 Linear Solver             3         2    1.498858E-02                  1_GWF-(1,46,108)
 Under-relaxation          3              1.349122E-02                  1_GWF-(1,46,108)
 Linear Solver             4         1    1.308773E-03                  1_GWF-(1,46,108)

 4 CALLS TO NUMERICAL SOLUTION IN TIME STEP 4 STRESS PERIOD 7
 8 TOTAL ITERATIONS


 OUTER ITERATION SUMMARY
 ---------------------------------------------------------------------------------------
                       OUTER     INNER         MAXIMUM                    MAXIMUM CHANGE
                   ITERATION ITERATION          CHANGE                    MODEL-(CELLID)
 ---------------------------------------------------------------------------------------
 Linear Solver             1         3   -0.669930                      1_GWF-(1,100,57)
 Under-relaxation          1             -0.669930                      1_GWF-(1,100,57)
 Linear Solver             2         2   -7.268951E-02                  1_GWF-(1,157,84)
 Under-relaxation          2             -7.268951E-02                  1_GWF-(1,157,84)
 Linear Solver             3         2    1.039492E-02                  1_GWF-(1,155,85)
 Under-relaxation          3              9.356471E-03                  1_GWF-(1,155,85)
 Linear Solver             4         1    8.876051E-04                  1_GWF-(1,155,85)

 4 CALLS TO NUMERICAL SOLUTION IN TIME STEP 5 STRESS PERIOD 7
 8 TOTAL ITERATIONS
1
                            STRESS PERIOD NO.    8, LENGTH =   2592000.    
                            -----------------------------------------------

                              NUMBER OF TIME STEPS =     5

                               MULTIPLIER FOR DELT =     1.000

                            INITIAL TIME STEP SIZE =   518400.0    


 OUTER ITERATION SUMMARY
 ---------------------------------------------------------------------------------------
                       OUTER     INNER         MAXIMUM                    MAXIMUM CHANGE
                   ITERATION ITERATION          CHANGE                    MODEL-(CELLID)
 ---------------------------------------------------------------------------------------
 Linear Solver             1         4    -4.58045                      1_GWF-(1,100,57)
 Under-relaxation          1              -4.58045                      1_GWF-(1,100,57)
 Linear Solver             2         3    0.307907                      1_GWF-(1,48,107)
 Under-relaxation          2              0.277116                      1_GWF-(1,48,107)
 Linear Solver             3         2    2.960439E-02                  1_GWF-(1,50,105)
 Under-relaxation          3              2.664692E-02                  1_GWF-(1,50,105)
 Linear Solver             4         1    2.767251E-03                  1_GWF-(1,50,105)

 4 CALLS TO NUMERICAL SOLUTION IN TIME STEP 1 STRESS PERIOD 8
 10 TOTAL ITERATIONS


 OUTER ITERATION SUMMARY
 ---------------------------------------------------------------------------------------
                       OUTER     INNER         MAXIMUM                    MAXIMUM CHANGE
                   ITERATION ITERATION          CHANGE                    MODEL-(CELLID)
 ---------------------------------------------------------------------------------------
 Linear Solver             1         3    -1.77965                      1_GWF-(1,100,57)
 Under-relaxation          1              -1.77965                      1_GWF-(1,100,57)
 Linear Solver             2         2   -0.388847                      1_GWF-(1,153,77)
 Under-relaxation          2             -0.388847                      1_GWF-(1,153,77)
 Linear Solver             3         2    2.676295E-02                  1_GWF-(1,45,109)
 Under-relaxation          3              2.408933E-02                  1_GWF-(1,45,109)
 Linear Solver             4         1    2.294578E-03                  1_GWF-(1,45,109)

 4 CALLS TO NUMERICAL SOLUTION IN TIME STEP 2 STRESS PERIOD 8
 8 TOTAL ITERATIONS


 OUTER ITERATION SUMMARY
 ---------------------------------------------------------------------------------------
                       OUTER     INNER         MAXIMUM                    MAXIMUM CHANGE
                   ITERATION ITERATION          CHANGE                    MODEL-(CELLID)
 ---------------------------------------------------------------------------------------
 Linear Solver             1         3    -1.07133                      1_GWF-(1,100,57)
 Under-relaxation          1              -1.07133                      1_GWF-(1,100,57)
 Linear Solver             2         3   -0.201394                      1_GWF-(1,134,61)
 Under-relaxation          2             -0.201394                      1_GWF-(1,134,61)
 Linear Solver             3         2    1.270259E-02                  1_GWF-(1,40,111)
 Under-relaxation          3              1.143361E-02                  1_GWF-(1,40,111)
 Linear Solver             4         1    1.171790E-03                  1_GWF-(1,40,111)

 4 CALLS TO NUMERICAL SOLUTION IN TIME STEP 3 STRESS PERIOD 8
 9 TOTAL ITERATIONS


 OUTER ITERATION SUMMARY
 ---------------------------------------------------------------------------------------
                       OUTER     INNER         MAXIMUM                    MAXIMUM CHANGE
                   ITERATION ITERATION          CHANGE                    MODEL-(CELLID)
 ---------------------------------------------------------------------------------------
 Linear Solver             1         3   -0.794593                      1_GWF-(1,100,57)
 Under-relaxation          1             -0.794593                      1_GWF-(1,100,57)
 Linear Solver             2         3   -0.699636                      1_GWF-(1,156,78)
 Under-relaxation          2             -0.699636                      1_GWF-(1,156,78)
 Linear Solver             3         2    1.018662E-02                  1_GWF-(1,37,114)
 Under-relaxation          3              9.168978E-03                  1_GWF-(1,37,114)
 Linear Solver             4         1    9.331786E-04                  1_GWF-(1,37,114)

 4 CALLS TO NUMERICAL SOLUTION IN TIME STEP 4 STRESS PERIOD 8
 9 TOTAL ITERATIONS


 OUTER ITERATION SUMMARY
 ---------------------------------------------------------------------------------------
                       OUTER     INNER         MAXIMUM                    MAXIMUM CHANGE
                   ITERATION ITERATION          CHANGE                    MODEL-(CELLID)
 ---------------------------------------------------------------------------------------
 Linear Solver             1         3   -0.803332                      1_GWF-(1,156,78)
 Under-relaxation          1             -0.803332                      1_GWF-(1,156,78)
 Linear Solver             2         3   -0.144656                      1_GWF-(1,171,72)
 Under-relaxation          2             -0.144656                      1_GWF-(1,171,72)
 Linear Solver             3         1    7.476150E-03                  1_GWF-(1,50,106)

 3 CALLS TO NUMERICAL SOLUTION IN TIME STEP 5 STRESS PERIOD 8
 7 TOTAL ITERATIONS
1
                            STRESS PERIOD NO.    9, LENGTH =   2592000.    
                            -----------------------------------------------

                              NUMBER OF TIME STEPS =     5

                               MULTIPLIER FOR DELT =     1.000

                            INITIAL TIME STEP SIZE =   518400.0    


 OUTER ITERATION SUMMARY
 ---------------------------------------------------------------------------------------
                       OUTER     INNER         MAXIMUM                    MAXIMUM CHANGE
                   ITERATION ITERATION          CHANGE                    MODEL-(CELLID)
 ---------------------------------------------------------------------------------------
 Linear Solver             1         3     1.04318                      1_GWF-(1,152,81)
 Under-relaxation          1               1.04318                      1_GWF-(1,152,81)
 Linear Solver             2         2    4.930717E-02                  1_GWF-(1,45,110)
 Under-relaxation          2              4.930717E-02                  1_GWF-(1,45,110)
 Linear Solver             3         1    2.570042E-03                 1_GWF-(1,123,114)

 3 CALLS TO NUMERICAL SOLUTION IN TIME STEP 1 STRESS PERIOD 9
 6 TOTAL ITERATIONS


 OUTER ITERATION SUMMARY
 ---------------------------------------------------------------------------------------
                       OUTER     INNER         MAXIMUM                    MAXIMUM CHANGE
                   ITERATION ITERATION          CHANGE                    MODEL-(CELLID)
 ---------------------------------------------------------------------------------------
 Linear Solver             1         3   -0.431319                      1_GWF-(1,101,56)
 Under-relaxation          1             -0.431319                      1_GWF-(1,101,56)
 Linear Solver             2         2    2.820379E-02                  1_GWF-(1,113,81)
 Under-relaxation          2              2.538341E-02                  1_GWF-(1,113,81)
 Linear Solver             3         1    1.841708E-03                  1_GWF-(1,113,81)

 3 CALLS TO NUMERICAL SOLUTION IN TIME STEP 2 STRESS PERIOD 9
 6 TOTAL ITERATIONS


 OUTER ITERATION SUMMARY
 ---------------------------------------------------------------------------------------
                       OUTER     INNER         MAXIMUM                    MAXIMUM CHANGE
                   ITERATION ITERATION          CHANGE                    MODEL-(CELLID)
 ---------------------------------------------------------------------------------------
 Linear Solver             1         3   -0.382969                      1_GWF-(1,102,57)
 Under-relaxation          1             -0.382969                      1_GWF-(1,102,57)
 Linear Solver             2         2   -0.187425                      1_GWF-(1,154,81)
 Under-relaxation          2             -0.187425                      1_GWF-(1,154,81)
 Linear Solver             3         1    6.805753E-03                 1_GWF-(1,124,109)

 3 CALLS TO NUMERICAL SOLUTION IN TIME STEP 3 STRESS PERIOD 9
 6 TOTAL ITERATIONS


 OUTER ITERATION SUMMARY
 ---------------------------------------------------------------------------------------
                       OUTER     INNER         MAXIMUM                    MAXIMUM CHANGE
                   ITERATION ITERATION          CHANGE                    MODEL-(CELLID)
 ---------------------------------------------------------------------------------------
 Linear Solver             1         3   -0.410141                      1_GWF-(1,154,81)
 Under-relaxation          1             -0.410141                      1_GWF-(1,154,81)
 Linear Solver             2         2    2.382828E-02                  1_GWF-(1,103,55)
 Under-relaxation          2              2.144545E-02                  1_GWF-(1,103,55)
 Linear Solver             3         1    1.531674E-03                 1_GWF-(1,118,109)

 3 CALLS TO NUMERICAL SOLUTION IN TIME STEP 4 STRESS PERIOD 9
 6 TOTAL ITERATIONS


 OUTER ITERATION SUMMARY
 ---------------------------------------------------------------------------------------
                       OUTER     INNER         MAXIMUM                    MAXIMUM CHANGE
                   ITERATION ITERATION          CHANGE                    MODEL-(CELLID)
 ---------------------------------------------------------------------------------------
 Linear Solver             1         3   -0.316600                      1_GWF-(1,103,57)
 Under-relaxation          1             -0.316600                      1_GWF-(1,103,57)
 Linear Solver             2         2    2.245081E-02                  1_GWF-(1,104,56)
 Under-relaxation          2              2.020573E-02                  1_GWF-(1,104,56)
 Linear Solver             3         1    1.983051E-03                 1_GWF-(1,128,110)

 3 CALLS TO NUMERICAL SOLUTION IN TIME STEP 5 STRESS PERIOD 9
 6 TOTAL ITERATIONS
1
                            STRESS PERIOD NO.   10, LENGTH =   2592000.    
                            -----------------------------------------------

                              NUMBER OF TIME STEPS =     5

                               MULTIPLIER FOR DELT =     1.000

                            INITIAL TIME STEP SIZE =   518400.0    


 OUTER ITERATION SUMMARY
 ---------------------------------------------------------------------------------------
                       OUTER     INNER         MAXIMUM                    MAXIMUM CHANGE
                   ITERATION ITERATION          CHANGE                    MODEL-(CELLID)
 ---------------------------------------------------------------------------------------
 Linear Solver             1         6     13.1855                      1_GWF-(1,100,57)
 Under-relaxation          1               13.1855                      1_GWF-(1,100,57)
 Linear Solver             2         3   -0.287455                       1_GWF-(1,94,45)
 Under-relaxation          2             -0.258710                       1_GWF-(1,94,45)
 Linear Solver             3         2   -1.819941E-02                   1_GWF-(1,94,45)
 Under-relaxation          3             -1.638129E-02                   1_GWF-(1,94,45)
 Linear Solver             4         1   -1.263800E-03                  1_GWF-(1,100,57)

 4 CALLS TO NUMERICAL SOLUTION IN TIME STEP 1 STRESS PERIOD 10
 12 TOTAL ITERATIONS


 OUTER ITERATION SUMMARY
 ---------------------------------------------------------------------------------------
                       OUTER     INNER         MAXIMUM                    MAXIMUM CHANGE
                   ITERATION ITERATION          CHANGE                    MODEL-(CELLID)
 ---------------------------------------------------------------------------------------
 Linear Solver             1         4     4.10232                      1_GWF-(1,100,57)
 Under-relaxation          1               4.10232                      1_GWF-(1,100,57)
 Linear Solver             2         2    0.214595                     1_GWF-(1,123,110)
 Under-relaxation          2              0.214595                     1_GWF-(1,123,110)
 Linear Solver             3         1   -7.611970E-03                  1_GWF-(1,100,57)

 3 CALLS TO NUMERICAL SOLUTION IN TIME STEP 2 STRESS PERIOD 10
 7 TOTAL ITERATIONS


 OUTER ITERATION SUMMARY
 ---------------------------------------------------------------------------------------
                       OUTER     INNER         MAXIMUM                    MAXIMUM CHANGE
                   ITERATION ITERATION          CHANGE                    MODEL-(CELLID)
 ---------------------------------------------------------------------------------------
 Linear Solver             1         4     1.99444                      1_GWF-(1,100,57)
 Under-relaxation          1               1.99444                      1_GWF-(1,100,57)
 Linear Solver             2         2   -8.569418E-02                  1_GWF-(1,134,72)
 Under-relaxation          2             -7.712476E-02                  1_GWF-(1,134,72)
 Linear Solver             3         2    1.622858E-02                  1_GWF-(1,150,81)
 Under-relaxation          3              1.314515E-02                  1_GWF-(1,150,81)
 Linear Solver             4         1    1.613135E-03                  1_GWF-(1,150,81)

 4 CALLS TO NUMERICAL SOLUTION IN TIME STEP 3 STRESS PERIOD 10
 9 TOTAL ITERATIONS


 OUTER ITERATION SUMMARY
 ---------------------------------------------------------------------------------------
                       OUTER     INNER         MAXIMUM                    MAXIMUM CHANGE
                   ITERATION ITERATION          CHANGE                    MODEL-(CELLID)
 ---------------------------------------------------------------------------------------
 Linear Solver             1         3     1.26491                      1_GWF-(1,100,57)
 Under-relaxation          1               1.26491                      1_GWF-(1,100,57)
 Linear Solver             2         2    0.619203                      1_GWF-(1,150,81)
 Under-relaxation          2              0.619203                      1_GWF-(1,150,81)
 Linear Solver             3         1   -3.191270E-03                  1_GWF-(1,100,57)

 3 CALLS TO NUMERICAL SOLUTION IN TIME STEP 4 STRESS PERIOD 10
 6 TOTAL ITERATIONS


 OUTER ITERATION SUMMARY
 ---------------------------------------------------------------------------------------
                       OUTER     INNER         MAXIMUM                    MAXIMUM CHANGE
                   ITERATION ITERATION          CHANGE                    MODEL-(CELLID)
 ---------------------------------------------------------------------------------------
 Linear Solver             1         3    0.911484                      1_GWF-(1,100,57)
 Under-relaxation          1              0.911484                      1_GWF-(1,100,57)
 Linear Solver             2         2   -4.859087E-02                  1_GWF-(1,100,56)
 Under-relaxation          2             -4.373178E-02                  1_GWF-(1,100,56)
 Linear Solver             3         1   -2.345066E-03                  1_GWF-(1,100,57)

 3 CALLS TO NUMERICAL SOLUTION IN TIME STEP 5 STRESS PERIOD 10
 6 TOTAL ITERATIONS
1
                            STRESS PERIOD NO.   11, LENGTH =   2592000.    
                            -----------------------------------------------

                              NUMBER OF TIME STEPS =     5

                               MULTIPLIER FOR DELT =     1.000

                            INITIAL TIME STEP SIZE =   518400.0    


 OUTER ITERATION SUMMARY
 ---------------------------------------------------------------------------------------
                       OUTER     INNER         MAXIMUM                    MAXIMUM CHANGE
                   ITERATION ITERATION          CHANGE                    MODEL-(CELLID)
 ---------------------------------------------------------------------------------------
 Linear Solver             1         5     4.19946                      1_GWF-(1,152,81)
 Under-relaxation          1               4.19946                      1_GWF-(1,152,81)
 Linear Solver             2         3    -1.92835                      1_GWF-(1,156,78)
 Under-relaxation          2              -1.73552                      1_GWF-(1,156,78)
 Linear Solver             3         2    4.678754E-02                  1_GWF-(1,45,108)
 Under-relaxation          3              4.678754E-02                  1_GWF-(1,45,108)
 Linear Solver             4         1    1.740406E-03                  1_GWF-(1,164,76)

 4 CALLS TO NUMERICAL SOLUTION IN TIME STEP 1 STRESS PERIOD 11
 11 TOTAL ITERATIONS


 OUTER ITERATION SUMMARY
 ---------------------------------------------------------------------------------------
                       OUTER     INNER         MAXIMUM                    MAXIMUM CHANGE
                   ITERATION ITERATION          CHANGE                    MODEL-(CELLID)
 ---------------------------------------------------------------------------------------
 Linear Solver             1         4     2.59995                      1_GWF-(1,48,107)
 Under-relaxation          1               2.59995                      1_GWF-(1,48,107)
 Linear Solver             2         3     1.69317                      1_GWF-(1,44,109)
 Under-relaxation          2               1.69317                      1_GWF-(1,44,109)
 Linear Solver             3         2    9.682384E-02                  1_GWF-(1,148,77)
 Under-relaxation          3              7.842731E-02                  1_GWF-(1,148,77)
 Linear Solver             4         2    1.015247E-02                  1_GWF-(1,148,77)
 Under-relaxation          4              8.224515E-03                  1_GWF-(1,148,77)
 Linear Solver             5         1    1.043362E-03                  1_GWF-(1,148,77)

 5 CALLS TO NUMERICAL SOLUTION IN TIME STEP 2 STRESS PERIOD 11
 12 TOTAL ITERATIONS


 OUTER ITERATION SUMMARY
 ---------------------------------------------------------------------------------------
                       OUTER     INNER         MAXIMUM                    MAXIMUM CHANGE
                   ITERATION ITERATION          CHANGE                    MODEL-(CELLID)
 ---------------------------------------------------------------------------------------
 Linear Solver             1         4     1.96400                      1_GWF-(1,46,108)
 Under-relaxation          1               1.96400                      1_GWF-(1,46,108)
 Linear Solver             2         3    0.739631                      1_GWF-(1,155,85)
 Under-relaxation          2              0.739631                      1_GWF-(1,155,85)
 Linear Solver             3         2    1.314647E-02                  1_GWF-(1,141,82)
 Under-relaxation          3              1.064864E-02                  1_GWF-(1,141,82)
 Linear Solver             4         1    1.803061E-03                  1_GWF-(1,141,82)

 4 CALLS TO NUMERICAL SOLUTION IN TIME STEP 3 STRESS PERIOD 11
 10 TOTAL ITERATIONS


 OUTER ITERATION SUMMARY
 ---------------------------------------------------------------------------------------
                       OUTER     INNER         MAXIMUM                    MAXIMUM CHANGE
                   ITERATION ITERATION          CHANGE                    MODEL-(CELLID)
 ---------------------------------------------------------------------------------------
 Linear Solver             1         4     1.57212                      1_GWF-(1,37,113)
 Under-relaxation          1               1.57212                      1_GWF-(1,37,113)
 Linear Solver             2         3     1.40397                      1_GWF-(1,43,109)
 Under-relaxation          2               1.40397                      1_GWF-(1,43,109)
 Linear Solver             3         2    1.194048E-02                  1_GWF-(1,64,120)
 Under-relaxation          3              1.194048E-02                  1_GWF-(1,64,120)
 Linear Solver             4         1    9.909234E-04                  1_GWF-(1,152,80)

 4 CALLS TO NUMERICAL SOLUTION IN TIME STEP 4 STRESS PERIOD 11
 10 TOTAL ITERATIONS


 OUTER ITERATION SUMMARY
 ---------------------------------------------------------------------------------------
                       OUTER     INNER         MAXIMUM                    MAXIMUM CHANGE
                   ITERATION ITERATION          CHANGE                    MODEL-(CELLID)
 ---------------------------------------------------------------------------------------
 Linear Solver             1         4     2.78369                      1_GWF-(1,151,80)
 Under-relaxation          1               2.78369                      1_GWF-(1,151,80)
 Linear Solver             2         3     1.17186                      1_GWF-(1,38,112)
 Under-relaxation          2               1.17186                      1_GWF-(1,38,112)
 Linear Solver             3         2    2.613777E-02                  1_GWF-(1,167,78)
 Under-relaxation          3              2.117159E-02                  1_GWF-(1,167,78)
 Linear Solver             4         1    3.279041E-03                  1_GWF-(1,167,78)

 4 CALLS TO NUMERICAL SOLUTION IN TIME STEP 5 STRESS PERIOD 11
 10 TOTAL ITERATIONS
1
                            STRESS PERIOD NO.   12, LENGTH =   2592000.    
                            -----------------------------------------------

                              NUMBER OF TIME STEPS =     5

                               MULTIPLIER FOR DELT =     1.000

                            INITIAL TIME STEP SIZE =   518400.0    


 OUTER ITERATION SUMMARY
 ---------------------------------------------------------------------------------------
                       OUTER     INNER         MAXIMUM                    MAXIMUM CHANGE
                   ITERATION ITERATION          CHANGE                    MODEL-(CELLID)
 ---------------------------------------------------------------------------------------
 Linear Solver             1         4    -1.88256                      1_GWF-(1,152,81)
 Under-relaxation          1              -1.88256                      1_GWF-(1,152,81)
 Linear Solver             2         3    0.542188                      1_GWF-(1,41,110)
 Under-relaxation          2              0.542188                      1_GWF-(1,41,110)
 Linear Solver             3         2    2.505577E-02                  1_GWF-(1,41,111)
 Under-relaxation          3              2.255270E-02                  1_GWF-(1,41,111)
 Linear Solver             4         1    2.611340E-03                  1_GWF-(1,41,111)

 4 CALLS TO NUMERICAL SOLUTION IN TIME STEP 1 STRESS PERIOD 12
 10 TOTAL ITERATIONS


 OUTER ITERATION SUMMARY
 ---------------------------------------------------------------------------------------
                       OUTER     INNER         MAXIMUM                    MAXIMUM CHANGE
                   ITERATION ITERATION          CHANGE                    MODEL-(CELLID)
 ---------------------------------------------------------------------------------------
 Linear Solver             1         3    -1.12837                      1_GWF-(1,151,82)
 Under-relaxation          1              -1.12837                      1_GWF-(1,151,82)
 Linear Solver             2         2    0.232253                      1_GWF-(1,44,108)
 Under-relaxation          2              0.232253                      1_GWF-(1,44,108)
 Linear Solver             3         1    7.201473E-03                  1_GWF-(1,44,109)

 3 CALLS TO NUMERICAL SOLUTION IN TIME STEP 2 STRESS PERIOD 12
 6 TOTAL ITERATIONS


 OUTER ITERATION SUMMARY
 ---------------------------------------------------------------------------------------
                       OUTER     INNER         MAXIMUM                    MAXIMUM CHANGE
                   ITERATION ITERATION          CHANGE                    MODEL-(CELLID)
 ---------------------------------------------------------------------------------------
 Linear Solver             1         3    0.742648                      1_GWF-(1,44,108)
 Under-relaxation          1              0.742648                      1_GWF-(1,44,108)
 Linear Solver             2         2    8.345439E-02                  1_GWF-(1,156,84)
 Under-relaxation          2              8.345439E-02                  1_GWF-(1,156,84)
 Linear Solver             3         1   -8.945017E-04                  1_GWF-(1,101,57)

 3 CALLS TO NUMERICAL SOLUTION IN TIME STEP 3 STRESS PERIOD 12
 6 TOTAL ITERATIONS


 OUTER ITERATION SUMMARY
 ---------------------------------------------------------------------------------------
                       OUTER     INNER         MAXIMUM                    MAXIMUM CHANGE
                   ITERATION ITERATION          CHANGE                    MODEL-(CELLID)
 ---------------------------------------------------------------------------------------
 Linear Solver             1         3    0.468501                      1_GWF-(1,43,107)
 Under-relaxation          1              0.468501                      1_GWF-(1,43,107)
 Linear Solver             2         2    0.642991                      1_GWF-(1,45,107)
 Under-relaxation          2              0.642991                      1_GWF-(1,45,107)
 Linear Solver             3         1    7.606285E-03                  1_GWF-(1,45,109)

 3 CALLS TO NUMERICAL SOLUTION IN TIME STEP 4 STRESS PERIOD 12
 6 TOTAL ITERATIONS


 OUTER ITERATION SUMMARY
 ---------------------------------------------------------------------------------------
                       OUTER     INNER         MAXIMUM                    MAXIMUM CHANGE
                   ITERATION ITERATION          CHANGE                    MODEL-(CELLID)
 ---------------------------------------------------------------------------------------
 Linear Solver             1         2    0.532949                      1_GWF-(1,45,107)
 Under-relaxation          1              0.532949                      1_GWF-(1,45,107)
 Linear Solver             2         2    0.116610                     1_GWF-(1,127,116)
 Under-relaxation          2              0.116610                     1_GWF-(1,127,116)
 Linear Solver             3         1   -9.750721E-04                  1_GWF-(1,44,107)

 3 CALLS TO NUMERICAL SOLUTION IN TIME STEP 5 STRESS PERIOD 12
 5 TOTAL ITERATIONS
1
                            STRESS PERIOD NO.   13, LENGTH =   2592000.    
                            -----------------------------------------------

                              NUMBER OF TIME STEPS =     5

                               MULTIPLIER FOR DELT =     1.000

                            INITIAL TIME STEP SIZE =   518400.0    


 OUTER ITERATION SUMMARY
 ---------------------------------------------------------------------------------------
                       OUTER     INNER         MAXIMUM                    MAXIMUM CHANGE
                   ITERATION ITERATION          CHANGE                    MODEL-(CELLID)
 ---------------------------------------------------------------------------------------
 Linear Solver             1         4   -0.445201                      1_GWF-(1,151,82)
 Under-relaxation          1             -0.445201                      1_GWF-(1,151,82)
 Linear Solver             2         2    2.606524E-02                   1_GWF-(1,68,96)
 Under-relaxation          2              2.606524E-02                   1_GWF-(1,68,96)
 Linear Solver             3         1   -4.625137E-03                  1_GWF-(1,106,19)

 3 CALLS TO NUMERICAL SOLUTION IN TIME STEP 1 STRESS PERIOD 13
 7 TOTAL ITERATIONS


 OUTER ITERATION SUMMARY
 ---------------------------------------------------------------------------------------
                       OUTER     INNER         MAXIMUM                    MAXIMUM CHANGE
                   ITERATION ITERATION          CHANGE                    MODEL-(CELLID)
 ---------------------------------------------------------------------------------------
 Linear Solver             1         3    0.333905                      1_GWF-(1,43,107)
 Under-relaxation          1              0.333905                      1_GWF-(1,43,107)
 Linear Solver             2         2    4.443934E-02                 1_GWF-(1,127,112)
 Under-relaxation          2              4.443934E-02                 1_GWF-(1,127,112)
 Linear Solver             3         1    6.043423E-04                  1_GWF-(1,150,80)

 3 CALLS TO NUMERICAL SOLUTION IN TIME STEP 2 STRESS PERIOD 13
 6 TOTAL ITERATIONS


 OUTER ITERATION SUMMARY
 ---------------------------------------------------------------------------------------
                       OUTER     INNER         MAXIMUM                    MAXIMUM CHANGE
                   ITERATION ITERATION          CHANGE                    MODEL-(CELLID)
 ---------------------------------------------------------------------------------------
 Linear Solver             1         3    0.309690                     1_GWF-(1,126,111)
 Under-relaxation          1              0.309690                     1_GWF-(1,126,111)
 Linear Solver             2         2    4.435244E-02                  1_GWF-(1,35,115)
 Under-relaxation          2              3.991720E-02                  1_GWF-(1,35,115)
 Linear Solver             3         1    4.111426E-03                  1_GWF-(1,35,115)

 3 CALLS TO NUMERICAL SOLUTION IN TIME STEP 3 STRESS PERIOD 13
 6 TOTAL ITERATIONS


 OUTER ITERATION SUMMARY
 ---------------------------------------------------------------------------------------
                       OUTER     INNER         MAXIMUM                    MAXIMUM CHANGE
                   ITERATION ITERATION          CHANGE                    MODEL-(CELLID)
 ---------------------------------------------------------------------------------------
 Linear Solver             1         3    0.255979                      1_GWF-(1,43,107)
 Under-relaxation          1              0.255979                      1_GWF-(1,43,107)
 Linear Solver             2         2    7.691995E-02                 1_GWF-(1,129,110)
 Under-relaxation          2              7.691995E-02                 1_GWF-(1,129,110)
 Linear Solver             3         1   -4.592802E-04                  1_GWF-(1,43,107)

 3 CALLS TO NUMERICAL SOLUTION IN TIME STEP 4 STRESS PERIOD 13
 6 TOTAL ITERATIONS


 OUTER ITERATION SUMMARY
 ---------------------------------------------------------------------------------------
                       OUTER     INNER         MAXIMUM                    MAXIMUM CHANGE
                   ITERATION ITERATION          CHANGE                    MODEL-(CELLID)
 ---------------------------------------------------------------------------------------
 Linear Solver             1         3    0.227091                      1_GWF-(1,43,107)
 Under-relaxation          1              0.227091                      1_GWF-(1,43,107)
 Linear Solver             2         2    0.108329                     1_GWF-(1,127,111)
 Under-relaxation          2              0.108329                     1_GWF-(1,127,111)
 Linear Solver             3         1   -4.936979E-04                 1_GWF-(1,128,111)

 3 CALLS TO NUMERICAL SOLUTION IN TIME STEP 5 STRESS PERIOD 13
 6 TOTAL ITERATIONS
1
                            STRESS PERIOD NO.   14, LENGTH =   2592000.    
                            -----------------------------------------------

                              NUMBER OF TIME STEPS =     5

                               MULTIPLIER FOR DELT =     1.000

                            INITIAL TIME STEP SIZE =   518400.0    


 OUTER ITERATION SUMMARY
 ---------------------------------------------------------------------------------------
                       OUTER     INNER         MAXIMUM                    MAXIMUM CHANGE
                   ITERATION ITERATION          CHANGE                    MODEL-(CELLID)
 ---------------------------------------------------------------------------------------
 Linear Solver             1         4   -0.467996                      1_GWF-(1,151,82)
 Under-relaxation          1             -0.467996                      1_GWF-(1,151,82)
 Linear Solver             2         2    2.286657E-02                 1_GWF-(1,128,111)
 Under-relaxation          2              2.286657E-02                 1_GWF-(1,128,111)
 Linear Solver             3         1    5.644806E-04                  1_GWF-(1,60,130)

 3 CALLS TO NUMERICAL SOLUTION IN TIME STEP 1 STRESS PERIOD 14
 7 TOTAL ITERATIONS


 OUTER ITERATION SUMMARY
 ---------------------------------------------------------------------------------------
                       OUTER     INNER         MAXIMUM                    MAXIMUM CHANGE
                   ITERATION ITERATION          CHANGE                    MODEL-(CELLID)
 ---------------------------------------------------------------------------------------
 Linear Solver             1         3    0.227491                     1_GWF-(1,128,111)
 Under-relaxation          1              0.227491                     1_GWF-(1,128,111)
 Linear Solver             2         2    2.663536E-02                  1_GWF-(1,41,110)
 Under-relaxation          2              2.397183E-02                  1_GWF-(1,41,110)
 Linear Solver             3         1   -9.765844E-03                  1_GWF-(1,153,80)

 3 CALLS TO NUMERICAL SOLUTION IN TIME STEP 2 STRESS PERIOD 14
 6 TOTAL ITERATIONS


 OUTER ITERATION SUMMARY
 ---------------------------------------------------------------------------------------
                       OUTER     INNER         MAXIMUM                    MAXIMUM CHANGE
                   ITERATION ITERATION          CHANGE                    MODEL-(CELLID)
 ---------------------------------------------------------------------------------------
 Linear Solver             1         3    0.193324                     1_GWF-(1,127,114)
 Under-relaxation          1              0.193324                     1_GWF-(1,127,114)
 Linear Solver             2         2   -0.275585                      1_GWF-(1,153,80)
 Under-relaxation          2             -0.275585                      1_GWF-(1,153,80)
 Linear Solver             3         1    1.631790E-03                  1_GWF-(1,153,80)

 3 CALLS TO NUMERICAL SOLUTION IN TIME STEP 3 STRESS PERIOD 14
 6 TOTAL ITERATIONS


 OUTER ITERATION SUMMARY
 ---------------------------------------------------------------------------------------
                       OUTER     INNER         MAXIMUM                    MAXIMUM CHANGE
                   ITERATION ITERATION          CHANGE                    MODEL-(CELLID)
 ---------------------------------------------------------------------------------------
 Linear Solver             1         3    0.141779                     1_GWF-(1,127,113)
 Under-relaxation          1              0.141779                     1_GWF-(1,127,113)
 Linear Solver             2         2    6.689116E-02                  1_GWF-(1,43,108)
 Under-relaxation          2              6.689116E-02                  1_GWF-(1,43,108)
 Linear Solver             3         1    1.928017E-03                  1_GWF-(1,43,109)

 3 CALLS TO NUMERICAL SOLUTION IN TIME STEP 4 STRESS PERIOD 14
 6 TOTAL ITERATIONS


 OUTER ITERATION SUMMARY
 ---------------------------------------------------------------------------------------
                       OUTER     INNER         MAXIMUM                    MAXIMUM CHANGE
                   ITERATION ITERATION          CHANGE                    MODEL-(CELLID)
 ---------------------------------------------------------------------------------------
 Linear Solver             1         3    0.156464                     1_GWF-(1,127,113)
 Under-relaxation          1              0.156464                     1_GWF-(1,127,113)
 Linear Solver             2         1   -8.542439E-03                  1_GWF-(1,117,61)

 2 CALLS TO NUMERICAL SOLUTION IN TIME STEP 5 STRESS PERIOD 14
 4 TOTAL ITERATIONS
1
                            STRESS PERIOD NO.   15, LENGTH =   2592000.    
                            -----------------------------------------------

                              NUMBER OF TIME STEPS =     5

                               MULTIPLIER FOR DELT =     1.000

                            INITIAL TIME STEP SIZE =   518400.0    


 OUTER ITERATION SUMMARY
 ---------------------------------------------------------------------------------------
                       OUTER     INNER         MAXIMUM                    MAXIMUM CHANGE
                   ITERATION ITERATION          CHANGE                    MODEL-(CELLID)
 ---------------------------------------------------------------------------------------
 Linear Solver             1         4   -0.808662                      1_GWF-(1,100,57)
 Under-relaxation          1             -0.808662                      1_GWF-(1,100,57)
 Linear Solver             2         2    8.514088E-02                  1_GWF-(1,160,75)
 Under-relaxation          2              7.662680E-02                  1_GWF-(1,160,75)
 Linear Solver             3         1    2.788599E-03                  1_GWF-(1,160,75)

 3 CALLS TO NUMERICAL SOLUTION IN TIME STEP 1 STRESS PERIOD 15
 7 TOTAL ITERATIONS


 OUTER ITERATION SUMMARY
 ---------------------------------------------------------------------------------------
                       OUTER     INNER         MAXIMUM                    MAXIMUM CHANGE
                   ITERATION ITERATION          CHANGE                    MODEL-(CELLID)
 ---------------------------------------------------------------------------------------
 Linear Solver             1         3   -0.298633                      1_GWF-(1,46,111)
 Under-relaxation          1             -0.298633                      1_GWF-(1,46,111)
 Linear Solver             2         2    0.114716                      1_GWF-(1,38,112)
 Under-relaxation          2              0.103245                      1_GWF-(1,38,112)
 Linear Solver             3         2    1.067001E-02                  1_GWF-(1,38,112)
 Under-relaxation          3              9.604073E-03                  1_GWF-(1,38,112)
 Linear Solver             4         1    9.729598E-04                  1_GWF-(1,38,112)

 4 CALLS TO NUMERICAL SOLUTION IN TIME STEP 2 STRESS PERIOD 15
 8 TOTAL ITERATIONS


 OUTER ITERATION SUMMARY
 ---------------------------------------------------------------------------------------
                       OUTER     INNER         MAXIMUM                    MAXIMUM CHANGE
                   ITERATION ITERATION          CHANGE                    MODEL-(CELLID)
 ---------------------------------------------------------------------------------------
 Linear Solver             1         3   -0.217688                      1_GWF-(1,41,110)
 Under-relaxation          1             -0.217688                      1_GWF-(1,41,110)
 Linear Solver             2         2    1.308667E-02                  1_GWF-(1,60,107)
 Under-relaxation          2              1.177800E-02                  1_GWF-(1,60,107)
 Linear Solver             3         1    1.258529E-03                  1_GWF-(1,60,107)

 3 CALLS TO NUMERICAL SOLUTION IN TIME STEP 3 STRESS PERIOD 15
 6 TOTAL ITERATIONS


 OUTER ITERATION SUMMARY
 ---------------------------------------------------------------------------------------
                       OUTER     INNER         MAXIMUM                    MAXIMUM CHANGE
                   ITERATION ITERATION          CHANGE                    MODEL-(CELLID)
 ---------------------------------------------------------------------------------------
 Linear Solver             1         3   -0.185677                      1_GWF-(1,41,110)
 Under-relaxation          1             -0.185677                      1_GWF-(1,41,110)
 Linear Solver             2         2   -1.621176E-02                 1_GWF-(1,148,101)
 Under-relaxation          2             -1.621176E-02                 1_GWF-(1,148,101)
 Linear Solver             3         1    6.437960E-04                  1_GWF-(1,63,123)

 3 CALLS TO NUMERICAL SOLUTION IN TIME STEP 4 STRESS PERIOD 15
 6 TOTAL ITERATIONS


 OUTER ITERATION SUMMARY
 ---------------------------------------------------------------------------------------
                       OUTER     INNER         MAXIMUM                    MAXIMUM CHANGE
                   ITERATION ITERATION          CHANGE                    MODEL-(CELLID)
 ---------------------------------------------------------------------------------------
 Linear Solver             1         3   -0.157787                      1_GWF-(1,41,110)
 Under-relaxation          1             -0.157787                      1_GWF-(1,41,110)
 Linear Solver             2         2    2.114786E-02                  1_GWF-(1,51,104)
 Under-relaxation          2              1.903307E-02                  1_GWF-(1,51,104)
 Linear Solver             3         1    1.816338E-03                  1_GWF-(1,51,104)

 3 CALLS TO NUMERICAL SOLUTION IN TIME STEP 5 STRESS PERIOD 15
 6 TOTAL ITERATIONS
1
                            STRESS PERIOD NO.   16, LENGTH =   2592000.    
                            -----------------------------------------------

                              NUMBER OF TIME STEPS =     5

                               MULTIPLIER FOR DELT =     1.000

                            INITIAL TIME STEP SIZE =   518400.0    


 OUTER ITERATION SUMMARY
 ---------------------------------------------------------------------------------------
                       OUTER     INNER         MAXIMUM                    MAXIMUM CHANGE
                   ITERATION ITERATION          CHANGE                    MODEL-(CELLID)
 ---------------------------------------------------------------------------------------
 Linear Solver             1         4   -0.227835                      1_GWF-(1,152,81)
 Under-relaxation          1             -0.227835                      1_GWF-(1,152,81)
 Linear Solver             2         2    7.490247E-02                  1_GWF-(1,155,80)
 Under-relaxation          2              6.741222E-02                  1_GWF-(1,155,80)
 Linear Solver             3         1    3.386686E-03                  1_GWF-(1,39,111)

 3 CALLS TO NUMERICAL SOLUTION IN TIME STEP 1 STRESS PERIOD 16
 7 TOTAL ITERATIONS


 OUTER ITERATION SUMMARY
 ---------------------------------------------------------------------------------------
                       OUTER     INNER         MAXIMUM                    MAXIMUM CHANGE
[...]
 6 TOTAL ITERATIONS


 OUTER ITERATION SUMMARY
 ---------------------------------------------------------------------------------------
                       OUTER     INNER         MAXIMUM                    MAXIMUM CHANGE
                   ITERATION ITERATION          CHANGE                    MODEL-(CELLID)
 ---------------------------------------------------------------------------------------
 Linear Solver             1         3   -0.436073                      1_GWF-(1,101,56)
 Under-relaxation          1             -0.436073                      1_GWF-(1,101,56)
 Linear Solver             2         2   -3.481623E-02                 1_GWF-(1,141,113)
 Under-relaxation          2             -3.481623E-02                 1_GWF-(1,141,113)
 Linear Solver             3         1    3.241920E-03                 1_GWF-(1,119,109)

 3 CALLS TO NUMERICAL SOLUTION IN TIME STEP 2 STRESS PERIOD 21
 6 TOTAL ITERATIONS


 OUTER ITERATION SUMMARY
 ---------------------------------------------------------------------------------------
                       OUTER     INNER         MAXIMUM                    MAXIMUM CHANGE
                   ITERATION ITERATION          CHANGE                    MODEL-(CELLID)
 ---------------------------------------------------------------------------------------
 Linear Solver             1         3   -0.387710                      1_GWF-(1,102,57)
 Under-relaxation          1             -0.387710                      1_GWF-(1,102,57)
 Linear Solver             2         2    4.233976E-02                 1_GWF-(1,124,109)
 Under-relaxation          2              3.810579E-02                 1_GWF-(1,124,109)
 Linear Solver             3         1    3.981179E-03                 1_GWF-(1,124,109)

 3 CALLS TO NUMERICAL SOLUTION IN TIME STEP 3 STRESS PERIOD 21
 6 TOTAL ITERATIONS


 OUTER ITERATION SUMMARY
 ---------------------------------------------------------------------------------------
                       OUTER     INNER         MAXIMUM                    MAXIMUM CHANGE
                   ITERATION ITERATION          CHANGE                    MODEL-(CELLID)
 ---------------------------------------------------------------------------------------
 Linear Solver             1         3   -0.351106                      1_GWF-(1,102,57)
 Under-relaxation          1             -0.351106                      1_GWF-(1,102,57)
 Linear Solver             2         2    4.311006E-02                 1_GWF-(1,120,109)
 Under-relaxation          2              3.879906E-02                 1_GWF-(1,120,109)
 Linear Solver             3         1    3.995067E-03                 1_GWF-(1,120,109)

 3 CALLS TO NUMERICAL SOLUTION IN TIME STEP 4 STRESS PERIOD 21
 6 TOTAL ITERATIONS


 OUTER ITERATION SUMMARY
 ---------------------------------------------------------------------------------------
                       OUTER     INNER         MAXIMUM                    MAXIMUM CHANGE
                   ITERATION ITERATION          CHANGE                    MODEL-(CELLID)
 ---------------------------------------------------------------------------------------
 Linear Solver             1         3   -0.321101                      1_GWF-(1,103,57)
 Under-relaxation          1             -0.321101                      1_GWF-(1,103,57)
 Linear Solver             2         2   -0.264507                      1_GWF-(1,154,81)
 Under-relaxation          2             -0.264507                      1_GWF-(1,154,81)
 Linear Solver             3         1   -1.684948E-03                  1_GWF-(1,153,79)

 3 CALLS TO NUMERICAL SOLUTION IN TIME STEP 5 STRESS PERIOD 21
 6 TOTAL ITERATIONS
1
                            STRESS PERIOD NO.   22, LENGTH =   2592000.    
                            -----------------------------------------------

                              NUMBER OF TIME STEPS =     5

                               MULTIPLIER FOR DELT =     1.000

                            INITIAL TIME STEP SIZE =   518400.0    


 OUTER ITERATION SUMMARY
 ---------------------------------------------------------------------------------------
                       OUTER     INNER         MAXIMUM                    MAXIMUM CHANGE
                   ITERATION ITERATION          CHANGE                    MODEL-(CELLID)
 ---------------------------------------------------------------------------------------
 Linear Solver             1         6     13.1820                      1_GWF-(1,100,57)
 Under-relaxation          1               13.1820                      1_GWF-(1,100,57)
 Linear Solver             2         3   -0.287456                       1_GWF-(1,94,45)
 Under-relaxation          2             -0.258710                       1_GWF-(1,94,45)
 Linear Solver             3         2   -1.819887E-02                   1_GWF-(1,94,45)
 Under-relaxation          3             -1.638081E-02                   1_GWF-(1,94,45)
 Linear Solver             4         1   -1.263867E-03                  1_GWF-(1,100,57)

 4 CALLS TO NUMERICAL SOLUTION IN TIME STEP 1 STRESS PERIOD 22
 12 TOTAL ITERATIONS


 OUTER ITERATION SUMMARY
 ---------------------------------------------------------------------------------------
                       OUTER     INNER         MAXIMUM                    MAXIMUM CHANGE
                   ITERATION ITERATION          CHANGE                    MODEL-(CELLID)
 ---------------------------------------------------------------------------------------
 Linear Solver             1         4     4.09962                      1_GWF-(1,100,57)
 Under-relaxation          1               4.09962                      1_GWF-(1,100,57)
 Linear Solver             2         2    0.255898                     1_GWF-(1,123,110)
 Under-relaxation          2              0.255898                     1_GWF-(1,123,110)
 Linear Solver             3         1   -7.600803E-03                  1_GWF-(1,100,57)

 3 CALLS TO NUMERICAL SOLUTION IN TIME STEP 2 STRESS PERIOD 22
 7 TOTAL ITERATIONS


 OUTER ITERATION SUMMARY
 ---------------------------------------------------------------------------------------
                       OUTER     INNER         MAXIMUM                    MAXIMUM CHANGE
                   ITERATION ITERATION          CHANGE                    MODEL-(CELLID)
 ---------------------------------------------------------------------------------------
 Linear Solver             1         4     1.99185                      1_GWF-(1,100,57)
 Under-relaxation          1               1.99185                      1_GWF-(1,100,57)
 Linear Solver             2         2    0.587244                      1_GWF-(1,150,81)
 Under-relaxation          2              0.587244                      1_GWF-(1,150,81)
 Linear Solver             3         1   -4.564863E-03                  1_GWF-(1,100,57)

 3 CALLS TO NUMERICAL SOLUTION IN TIME STEP 3 STRESS PERIOD 22
 7 TOTAL ITERATIONS


 OUTER ITERATION SUMMARY
 ---------------------------------------------------------------------------------------
                       OUTER     INNER         MAXIMUM                    MAXIMUM CHANGE
                   ITERATION ITERATION          CHANGE                    MODEL-(CELLID)
 ---------------------------------------------------------------------------------------
 Linear Solver             1         3     1.26248                      1_GWF-(1,100,57)
 Under-relaxation          1               1.26248                      1_GWF-(1,100,57)
 Linear Solver             2         2    0.139359                      1_GWF-(1,46,109)
 Under-relaxation          2              0.139359                      1_GWF-(1,46,109)
 Linear Solver             3         1   -3.200175E-03                  1_GWF-(1,100,57)

 3 CALLS TO NUMERICAL SOLUTION IN TIME STEP 4 STRESS PERIOD 22
 6 TOTAL ITERATIONS


 OUTER ITERATION SUMMARY
 ---------------------------------------------------------------------------------------
                       OUTER     INNER         MAXIMUM                    MAXIMUM CHANGE
                   ITERATION ITERATION          CHANGE                    MODEL-(CELLID)
 ---------------------------------------------------------------------------------------
 Linear Solver             1         3    0.909150                      1_GWF-(1,100,57)
 Under-relaxation          1              0.909150                      1_GWF-(1,100,57)
 Linear Solver             2         2   -4.846680E-02                  1_GWF-(1,100,56)
 Under-relaxation          2              4.450093E-02                 1_GWF-(1,129,103)
 Linear Solver             3         1   -2.341022E-03                  1_GWF-(1,100,57)

 3 CALLS TO NUMERICAL SOLUTION IN TIME STEP 5 STRESS PERIOD 22
 6 TOTAL ITERATIONS
1
                            STRESS PERIOD NO.   23, LENGTH =   2592000.    
                            -----------------------------------------------

                              NUMBER OF TIME STEPS =     5

                               MULTIPLIER FOR DELT =     1.000

                            INITIAL TIME STEP SIZE =   518400.0    


 OUTER ITERATION SUMMARY
 ---------------------------------------------------------------------------------------
                       OUTER     INNER         MAXIMUM                    MAXIMUM CHANGE
                   ITERATION ITERATION          CHANGE                    MODEL-(CELLID)
 ---------------------------------------------------------------------------------------
 Linear Solver             1         5     4.19592                      1_GWF-(1,152,81)
 Under-relaxation          1               4.19592                      1_GWF-(1,152,81)
 Linear Solver             2         3    -2.02948                      1_GWF-(1,156,78)
 Under-relaxation          2              -1.82653                      1_GWF-(1,156,78)
 Linear Solver             3         2   -0.119174                      1_GWF-(1,153,80)
 Under-relaxation          3             -0.107269                      1_GWF-(1,153,80)
 Linear Solver             4         2   -1.187858E-02                  1_GWF-(1,153,80)
 Under-relaxation          4             -1.069310E-02                  1_GWF-(1,153,80)
 Linear Solver             5         1   -1.043298E-03                  1_GWF-(1,153,80)

 5 CALLS TO NUMERICAL SOLUTION IN TIME STEP 1 STRESS PERIOD 23
 13 TOTAL ITERATIONS


 OUTER ITERATION SUMMARY
 ---------------------------------------------------------------------------------------
                       OUTER     INNER         MAXIMUM                    MAXIMUM CHANGE
                   ITERATION ITERATION          CHANGE                    MODEL-(CELLID)
 ---------------------------------------------------------------------------------------
 Linear Solver             1         4     2.55218                      1_GWF-(1,44,109)
 Under-relaxation          1               2.55218                      1_GWF-(1,44,109)
 Linear Solver             2         3     1.77609                      1_GWF-(1,46,108)
 Under-relaxation          2               1.77609                      1_GWF-(1,46,108)
 Linear Solver             3         2    2.789192E-02                  1_GWF-(1,60,117)
 Under-relaxation          3              2.789192E-02                  1_GWF-(1,60,117)
 Linear Solver             4         1    7.534249E-04                  1_GWF-(1,149,77)

 4 CALLS TO NUMERICAL SOLUTION IN TIME STEP 2 STRESS PERIOD 23
 10 TOTAL ITERATIONS


 OUTER ITERATION SUMMARY
 ---------------------------------------------------------------------------------------
                       OUTER     INNER         MAXIMUM                    MAXIMUM CHANGE
                   ITERATION ITERATION          CHANGE                    MODEL-(CELLID)
 ---------------------------------------------------------------------------------------
 Linear Solver             1         4     1.74397                      1_GWF-(1,46,108)
 Under-relaxation          1               1.74397                      1_GWF-(1,46,108)
 Linear Solver             2         3    0.643742                      1_GWF-(1,36,114)
 Under-relaxation          2              0.643742                      1_GWF-(1,36,114)
 Linear Solver             3         2    1.154080E-02                  1_GWF-(1,61,116)
 Under-relaxation          3              1.154080E-02                  1_GWF-(1,61,116)
 Linear Solver             4         1    3.068330E-04                  1_GWF-(1,140,79)

 4 CALLS TO NUMERICAL SOLUTION IN TIME STEP 3 STRESS PERIOD 23
 10 TOTAL ITERATIONS


 OUTER ITERATION SUMMARY
 ---------------------------------------------------------------------------------------
                       OUTER     INNER         MAXIMUM                    MAXIMUM CHANGE
                   ITERATION ITERATION          CHANGE                    MODEL-(CELLID)
 ---------------------------------------------------------------------------------------
 Linear Solver             1         4     2.49456                      1_GWF-(1,43,109)
 Under-relaxation          1               2.49456                      1_GWF-(1,43,109)
 Linear Solver             2         3    0.765786                      1_GWF-(1,151,80)
 Under-relaxation          2              0.765786                      1_GWF-(1,151,80)
 Linear Solver             3         2    5.826058E-02                  1_GWF-(1,148,79)
 Under-relaxation          3              4.719107E-02                  1_GWF-(1,148,79)
 Linear Solver             4         1    5.638412E-03                  1_GWF-(1,148,79)

 4 CALLS TO NUMERICAL SOLUTION IN TIME STEP 4 STRESS PERIOD 23
 10 TOTAL ITERATIONS


 OUTER ITERATION SUMMARY
 ---------------------------------------------------------------------------------------
                       OUTER     INNER         MAXIMUM                    MAXIMUM CHANGE
                   ITERATION ITERATION          CHANGE                    MODEL-(CELLID)
 ---------------------------------------------------------------------------------------
 Linear Solver             1         4     2.45452                      1_GWF-(1,39,111)
 Under-relaxation          1               2.45452                      1_GWF-(1,39,111)
 Linear Solver             2         4     1.55726                      1_GWF-(1,148,79)
 Under-relaxation          2               1.55726                      1_GWF-(1,148,79)
 Linear Solver             3         1    6.736945E-03                  1_GWF-(1,157,73)

 3 CALLS TO NUMERICAL SOLUTION IN TIME STEP 5 STRESS PERIOD 23
 9 TOTAL ITERATIONS
1
                            STRESS PERIOD NO.   24, LENGTH =   2592000.    
                            -----------------------------------------------

                              NUMBER OF TIME STEPS =     5

                               MULTIPLIER FOR DELT =     1.000

                            INITIAL TIME STEP SIZE =   518400.0    


 OUTER ITERATION SUMMARY
 ---------------------------------------------------------------------------------------
                       OUTER     INNER         MAXIMUM                    MAXIMUM CHANGE
                   ITERATION ITERATION          CHANGE                    MODEL-(CELLID)
 ---------------------------------------------------------------------------------------
 Linear Solver             1         4    -1.89347                      1_GWF-(1,152,81)
 Under-relaxation          1              -1.89347                      1_GWF-(1,152,81)
 Linear Solver             2         2    0.153436                      1_GWF-(1,161,77)
 Under-relaxation          2              0.138093                      1_GWF-(1,161,77)
 Linear Solver             3         1    5.199404E-03                  1_GWF-(1,35,116)

 3 CALLS TO NUMERICAL SOLUTION IN TIME STEP 1 STRESS PERIOD 24
 7 TOTAL ITERATIONS


 OUTER ITERATION SUMMARY
 ---------------------------------------------------------------------------------------
                       OUTER     INNER         MAXIMUM                    MAXIMUM CHANGE
                   ITERATION ITERATION          CHANGE                    MODEL-(CELLID)
 ---------------------------------------------------------------------------------------
 Linear Solver             1         3   -0.631963                      1_GWF-(1,48,114)
 Under-relaxation          1             -0.631963                      1_GWF-(1,48,114)
 Linear Solver             2         3    0.617296                      1_GWF-(1,44,108)
 Under-relaxation          2              0.617296                      1_GWF-(1,44,108)
 Linear Solver             3         2    1.978400E-02                  1_GWF-(1,44,109)
 Under-relaxation          3              1.780758E-02                  1_GWF-(1,44,109)
 Linear Solver             4         1    1.949887E-03                  1_GWF-(1,44,109)

 4 CALLS TO NUMERICAL SOLUTION IN TIME STEP 2 STRESS PERIOD 24
 9 TOTAL ITERATIONS


 OUTER ITERATION SUMMARY
 ---------------------------------------------------------------------------------------
                       OUTER     INNER         MAXIMUM                    MAXIMUM CHANGE
                   ITERATION ITERATION          CHANGE                    MODEL-(CELLID)
 ---------------------------------------------------------------------------------------
 Linear Solver             1         3    0.503586                      1_GWF-(1,43,107)
 Under-relaxation          1              0.503586                      1_GWF-(1,43,107)
 Linear Solver             2         2    0.359074                      1_GWF-(1,45,107)
 Under-relaxation          2              0.359074                      1_GWF-(1,45,107)
 Linear Solver             3         1    4.067918E-03                  1_GWF-(1,45,109)

 3 CALLS TO NUMERICAL SOLUTION IN TIME STEP 3 STRESS PERIOD 24
 6 TOTAL ITERATIONS


 OUTER ITERATION SUMMARY
 ---------------------------------------------------------------------------------------
                       OUTER     INNER         MAXIMUM                    MAXIMUM CHANGE
                   ITERATION ITERATION          CHANGE                    MODEL-(CELLID)
 ---------------------------------------------------------------------------------------
 Linear Solver             1         3    0.791551                      1_GWF-(1,45,107)
 Under-relaxation          1              0.791551                      1_GWF-(1,45,107)
 Linear Solver             2         2    0.104038                     1_GWF-(1,127,115)
 Under-relaxation          2              0.104038                     1_GWF-(1,127,115)
 Linear Solver             3         1   -9.582915E-04                  1_GWF-(1,44,107)

 3 CALLS TO NUMERICAL SOLUTION IN TIME STEP 4 STRESS PERIOD 24
 6 TOTAL ITERATIONS


 OUTER ITERATION SUMMARY
 ---------------------------------------------------------------------------------------
                       OUTER     INNER         MAXIMUM                    MAXIMUM CHANGE
                   ITERATION ITERATION          CHANGE                    MODEL-(CELLID)
 ---------------------------------------------------------------------------------------
 Linear Solver             1         2    0.482264                      1_GWF-(1,44,107)
 Under-relaxation          1              0.482264                      1_GWF-(1,44,107)
 Linear Solver             2         2    5.569458E-02                 1_GWF-(1,125,117)
 Under-relaxation          2              5.569458E-02                 1_GWF-(1,125,117)
 Linear Solver             3         1   -1.402028E-03                  1_GWF-(1,152,79)

 3 CALLS TO NUMERICAL SOLUTION IN TIME STEP 5 STRESS PERIOD 24
 5 TOTAL ITERATIONS

 INFORMATION ON VARIABLES STORED IN THE MEMORY MANAGER
 
 Number of allocated integer variables:   594517
 Number of allocated real variables:    722377
 Allocated memory in megabytes:     8.15708    
 

 Run end date and time (yyyy/mm/dd hh:mm:ss): 2020/04/23 13:47:15
 Elapsed run time:  5.628 Seconds

 Normal termination of simulation.
