                                   MODFLOW 6
                U.S. GEOLOGICAL SURVEY MODULAR HYDROLOGIC MODEL
                            VERSION 6.0.4 03/13/2019

   MODFLOW 6 compiled Mar 21 2019 15:37:31 with IFORT compiler (ver. 19.0.0)

This software has been approved for release by the U.S. Geological 
Survey (USGS). Although the software has been subjected to rigorous 
review, the USGS reserves the right to update the software as needed 
pursuant to further analysis and review. No warranty, expressed or 
implied, is made by the USGS or the U.S. Government as to the 
functionality of the software and related material nor shall the 
fact of release constitute any such warranty. Furthermore, the 
software is released on condition that neither the USGS nor the U.S. 
Government shall be held liable for any damages resulting from its 
authorized or unauthorized use. Also refer to the USGS Water 
Resources Software User Rights Notice for complete use, copyright, 
and distribution information.


System command used to initiate simulation:
../../exe/mf6.exe

MODFLOW was compiled using uniform precision.
Real Variables
  PRECISION: 15
  KIND: 8
  TINY (smallest non-zero value):    2.225074-308
  HUGE (largest value):    1.797693+308
Integer Variables
  KIND: 4
  HUGE (largest value): 2147483647
  BIT_SIZE: 32
 

 OPENED mfsim.nam
 FILE TYPE:NAM   UNIT 1001   STATUS:OLD                 
 FORMAT:FORMATTED              ACCESS:SEQUENTIAL          
 ACTION:READ                


 READING SIMULATION OPTIONS
 END OF SIMULATION OPTIONS

 READING SIMULATION TIMING

 OPENED test_trans.tdis
 FILE TYPE:TDIS   UNIT 1002   STATUS:OLD                 
 FORMAT:FORMATTED              ACCESS:SEQUENTIAL          
 ACTION:READ                


 TDIS -- TEMPORAL DISCRETIZATION PACKAGE,
 VERSION 1 : 11/13/2014 - INPUT READ FROM UNIT 1002
 PROCESSING TDIS OPTIONS
    SIMULATION TIME UNIT IS DAYS
 END OF TDIS OPTIONS
 PROCESSING TDIS DIMENSIONS
   60 STRESS PERIOD(S) IN SIMULATION
 END OF TDIS DIMENSIONS
 PROCESSING TDIS PERIODDATA


 STRESS PERIOD     LENGTH       TIME STEPS     MULTIPLIER FOR DELT
 ----------------------------------------------------------------------------
        1         1.000000          1                    1.000
        2         30.00000         10                    1.000
        3         30.00000         10                    1.000
        4         30.00000         10                    1.000
        5         30.00000         10                    1.000
        6         30.00000         10                    1.000
        7         30.00000         10                    1.000
        8         30.00000         10                    1.000
        9         30.00000         10                    1.000
       10         30.00000         10                    1.000
       11         30.00000         10                    1.000
       12         30.00000         10                    1.000
       13         30.00000         10                    1.000
       14         30.00000         10                    1.000
       15         30.00000         10                    1.000
       16         30.00000         10                    1.000
       17         30.00000         10                    1.000
       18         30.00000         10                    1.000
       19         30.00000         10                    1.000
       20         30.00000         10                    1.000
       21         30.00000         10                    1.000
       22         30.00000         10                    1.000
       23         30.00000         10                    1.000
       24         30.00000         10                    1.000
       25         30.00000         10                    1.000
       26         30.00000         10                    1.000
       27         30.00000         10                    1.000
       28         30.00000         10                    1.000
       29         30.00000         10                    1.000
       30         30.00000         10                    1.000
       31         30.00000         10                    1.000
       32         30.00000         10                    1.000
       33         30.00000         10                    1.000
       34         30.00000         10                    1.000
       35         30.00000         10                    1.000
       36         30.00000         10                    1.000
       37         30.00000         10                    1.000
       38         30.00000         10                    1.000
       39         30.00000         10                    1.000
       40         30.00000         10                    1.000
       41         30.00000         10                    1.000
       42         30.00000         10                    1.000
       43         30.00000         10                    1.000
       44         30.00000         10                    1.000
       45         30.00000         10                    1.000
       46         30.00000         10                    1.000
       47         30.00000         10                    1.000
       48         30.00000         10                    1.000
       49         30.00000         10                    1.000
       50         30.00000         10                    1.000
       51         30.00000         10                    1.000
       52         30.00000         10                    1.000
       53         30.00000         10                    1.000
       54         30.00000         10                    1.000
       55         30.00000         10                    1.000
       56         30.00000         10                    1.000
       57         30.00000         10                    1.000
       58         30.00000         10                    1.000
       59         30.00000         10                    1.000
       60         30.00000         10                    1.000
 END OF TDIS PERIODDATA
 END OF SIMULATION TIMING

 READING SIMULATION MODELS
    GWF6 model TEST_TRANS will be created as model 1
 END OF SIMULATION MODELS

 READING SIMULATION EXCHANGES
 END OF SIMULATION EXCHANGES

 READING SOLUTIONGROUP

 Creating solution: SLN_1           

 OPENED test_trans.ims
 FILE TYPE:IMS   UNIT 1013   STATUS:OLD                 
 FORMAT:FORMATTED              ACCESS:SEQUENTIAL          
 ACTION:READ                

 END OF SIMULATION SOLUTIONGROUP

 IMS -- ITERATIVE MODEL SOLUTION PACKAGE, VERSION 6, 4/28/2017
         INPUT READ FROM UNIT 1013

 PROCESSING IMS OPTIONS
 MODERATE OPTION:
 DEFAULT SOLVER INPUT VALUES REFLECT MODERETELY NONLINEAR MODEL
 END OF IMS OPTIONS

 PROCESSING IMS NONLINEAR
 END OF IMS NONLINEAR DATA
 ***UNDER-RELAXATION WILL NOT BE USED***
 
 ***IMS LINEAR SOLVER WILL BE USED***

 IMSLINEAR -- UNSTRUCTURED LINEAR SOLUTION PACKAGE, VERSION 8, 04/28/2017

 PROCESSING LINEAR DATA
 END OF LINEAR DATA
 
 OUTER ITERATION CONVERGENCE CRITERION     (HCLOSE) =    0.100000E-03
 OUTER ITERATION BOUNDARY FLOW RESIDUAL (RCLOSEBND) =    0.100000E+00
 MAXIMUM NUMBER OF OUTER ITERATIONS        (MXITER) =       500
 SOLVER PRINTOUT INDEX                     (IPRIMS) =         1
 NONLINEAR ITERATION METHOD            (NONLINMETH) =         0
 LINEAR SOLUTION METHOD                   (LINMETH) =         1

       SOLUTION BY THE        CONJUGATE-GRADIENT       METHOD
 ------------------------------------------------------------------
 MAXIMUM OF    500 CALLS OF SOLUTION ROUTINE
 MAXIMUM OF    100 INTERNAL ITERATIONS PER CALL TO SOLUTION ROUTINE
 LINEAR ACCELERATION METHOD            = CG        
 MATRIX PRECONDITIONING TYPE           = MOD. INCOMPLETE LU  
 MATRIX SCALING APPROACH               = NO SCALING          
 MATRIX REORDERING APPROACH            = ORIGINAL ORDERING        
 NUMBER OF ORTHOGONALIZATIONS          =        0
 HEAD CHANGE CRITERION FOR CLOSURE     =    0.10000E-03
 RESIDUAL CHANGE CRITERION FOR CLOSURE =    0.10000E-02
 RESIDUAL CONVERGENCE OPTION           =        0
 RESIDUAL CONVERGENCE NORM             = INFINITY NORM   
 RELAXATION FACTOR                     =    0.97000E+00



1
                            STRESS PERIOD NO.    1, LENGTH =   1.000000    
                            -----------------------------------------------

                              NUMBER OF TIME STEPS =     1

                               MULTIPLIER FOR DELT =     1.000

                            INITIAL TIME STEP SIZE =   1.000000    


 OUTER ITERATION SUMMARY
 ---------------------------------------------------------------------------------------
                       OUTER     INNER         MAXIMUM                    MAXIMUM CHANGE
                   ITERATION ITERATION          CHANGE                    MODEL-(CELLID)
 ---------------------------------------------------------------------------------------
 Linear Solver             1        18     6.33746                        1_GWF-(1,30,1)
 Under-relaxation          1               6.33746                        1_GWF-(1,30,1)
 Linear Solver             2        20    -3.42778                        1_GWF-(1,30,1)
 Under-relaxation          2              -3.42778                        1_GWF-(1,30,1)
 Linear Solver             3        17    0.644345                        1_GWF-(1,21,1)
 Under-relaxation          3              0.644345                        1_GWF-(1,21,1)
 Linear Solver             4        15   -0.150008                        1_GWF-(1,23,1)
 Under-relaxation          4             -0.150008                        1_GWF-(1,23,1)
 Linear Solver             5        13    2.489789E-02                    1_GWF-(1,30,1)
 Under-relaxation          5              2.489789E-02                    1_GWF-(1,30,1)
 Linear Solver             6        11   -3.390815E-03                     1_GWF-(1,4,1)
 Under-relaxation          6             -3.390815E-03                     1_GWF-(1,4,1)
 Linear Solver             7         2    1.755382E-04                    1_GWF-(1,30,1)
 Under-relaxation          7              1.755382E-04                    1_GWF-(1,30,1)
 Linear Solver             8         1    3.284296E-05                    1_GWF-(1,1,12)

 8 CALLS TO NUMERICAL SOLUTION IN TIME STEP 1 STRESS PERIOD 1
 97 TOTAL ITERATIONS
1
                            STRESS PERIOD NO.    2, LENGTH =   30.00000    
                            -----------------------------------------------

                              NUMBER OF TIME STEPS =    10

                               MULTIPLIER FOR DELT =     1.000

                            INITIAL TIME STEP SIZE =   3.000000    


 OUTER ITERATION SUMMARY
 ---------------------------------------------------------------------------------------
                       OUTER     INNER         MAXIMUM                    MAXIMUM CHANGE
                   ITERATION ITERATION          CHANGE                    MODEL-(CELLID)
 ---------------------------------------------------------------------------------------
 Linear Solver             1         5    6.651185E-02                   1_GWF-(1,29,29)
 Under-relaxation          1              6.651185E-02                   1_GWF-(1,29,29)
 Linear Solver             2         4   -3.411887E-03                    1_GWF-(1,3,27)
 Under-relaxation          2             -3.411887E-03                    1_GWF-(1,3,27)
 Linear Solver             3         2   -2.135778E-04                   1_GWF-(1,23,29)
 Under-relaxation          3             -2.135778E-04                   1_GWF-(1,23,29)
 Linear Solver             4         1    2.872572E-05                    1_GWF-(1,4,27)

 4 CALLS TO NUMERICAL SOLUTION IN TIME STEP 1 STRESS PERIOD 2
 12 TOTAL ITERATIONS


 OUTER ITERATION SUMMARY
 ---------------------------------------------------------------------------------------
                       OUTER     INNER         MAXIMUM                    MAXIMUM CHANGE
                   ITERATION ITERATION          CHANGE                    MODEL-(CELLID)
 ---------------------------------------------------------------------------------------
 Linear Solver             1         5    2.301396E-02                    1_GWF-(1,1,28)
 Under-relaxation          1              2.301396E-02                    1_GWF-(1,1,28)
 Linear Solver             2         3   -1.059928E-03                    1_GWF-(1,2,26)
 Under-relaxation          2             -1.059928E-03                    1_GWF-(1,2,26)
 Linear Solver             3         2   -1.209928E-04                   1_GWF-(1,30,28)
 Under-relaxation          3             -1.209928E-04                   1_GWF-(1,30,28)
 Linear Solver             4         1    8.723191E-06                    1_GWF-(1,3,26)

 4 CALLS TO NUMERICAL SOLUTION IN TIME STEP 2 STRESS PERIOD 2
 11 TOTAL ITERATIONS


 OUTER ITERATION SUMMARY
 ---------------------------------------------------------------------------------------
                       OUTER     INNER         MAXIMUM                    MAXIMUM CHANGE
                   ITERATION ITERATION          CHANGE                    MODEL-(CELLID)
 ---------------------------------------------------------------------------------------
 Linear Solver             1         4    1.475386E-02                    1_GWF-(1,1,27)
 Under-relaxation          1              1.475386E-02                    1_GWF-(1,1,27)
 Linear Solver             2         3    6.757206E-04                   1_GWF-(1,30,29)
 Under-relaxation          2              6.757206E-04                   1_GWF-(1,30,29)
 Linear Solver             3         1   -7.168691E-05                   1_GWF-(1,30,28)

 3 CALLS TO NUMERICAL SOLUTION IN TIME STEP 3 STRESS PERIOD 2
 8 TOTAL ITERATIONS


 OUTER ITERATION SUMMARY
 ---------------------------------------------------------------------------------------
                       OUTER     INNER         MAXIMUM                    MAXIMUM CHANGE
                   ITERATION ITERATION          CHANGE                    MODEL-(CELLID)
 ---------------------------------------------------------------------------------------
 Linear Solver             1         4    1.161333E-02                    1_GWF-(1,1,26)
 Under-relaxation          1              1.161333E-02                    1_GWF-(1,1,26)
 Linear Solver             2         3    5.336318E-04                   1_GWF-(1,30,29)
 Under-relaxation          2              5.336318E-04                   1_GWF-(1,30,29)
 Linear Solver             3         1   -5.005560E-05                   1_GWF-(1,30,28)

 3 CALLS TO NUMERICAL SOLUTION IN TIME STEP 4 STRESS PERIOD 2
 8 TOTAL ITERATIONS


 OUTER ITERATION SUMMARY
 ---------------------------------------------------------------------------------------
                       OUTER     INNER         MAXIMUM                    MAXIMUM CHANGE
                   ITERATION ITERATION          CHANGE                    MODEL-(CELLID)
 ---------------------------------------------------------------------------------------
 Linear Solver             1         4    1.007483E-02                    1_GWF-(1,1,24)
 Under-relaxation          1              1.007483E-02                    1_GWF-(1,1,24)
 Linear Solver             2         2    4.476114E-04                   1_GWF-(1,30,29)
 Under-relaxation          2              4.476114E-04                   1_GWF-(1,30,29)
 Linear Solver             3         1   -4.819164E-05                   1_GWF-(1,30,28)

 3 CALLS TO NUMERICAL SOLUTION IN TIME STEP 5 STRESS PERIOD 2
 7 TOTAL ITERATIONS


 OUTER ITERATION SUMMARY
 ---------------------------------------------------------------------------------------
                       OUTER     INNER         MAXIMUM                    MAXIMUM CHANGE
                   ITERATION ITERATION          CHANGE                    MODEL-(CELLID)
 ---------------------------------------------------------------------------------------
 Linear Solver             1         4    9.215391E-03                    1_GWF-(1,2,23)
 Under-relaxation          1              9.215391E-03                    1_GWF-(1,2,23)
 Linear Solver             2         2    3.820194E-04                   1_GWF-(1,30,29)
 Under-relaxation          2              3.820194E-04                   1_GWF-(1,30,29)
 Linear Solver             3         1   -3.949066E-05                   1_GWF-(1,30,28)

 3 CALLS TO NUMERICAL SOLUTION IN TIME STEP 6 STRESS PERIOD 2
 7 TOTAL ITERATIONS


 OUTER ITERATION SUMMARY
 ---------------------------------------------------------------------------------------
                       OUTER     INNER         MAXIMUM                    MAXIMUM CHANGE
                   ITERATION ITERATION          CHANGE                    MODEL-(CELLID)
 ---------------------------------------------------------------------------------------
 Linear Solver             1         4    8.675708E-03                    1_GWF-(1,1,21)
 Under-relaxation          1              8.675708E-03                    1_GWF-(1,1,21)
 Linear Solver             2         2    3.364639E-04                   1_GWF-(1,30,29)
 Under-relaxation          2              3.364639E-04                   1_GWF-(1,30,29)
 Linear Solver             3         1   -3.363022E-05                   1_GWF-(1,30,28)

 3 CALLS TO NUMERICAL SOLUTION IN TIME STEP 7 STRESS PERIOD 2
 7 TOTAL ITERATIONS


 OUTER ITERATION SUMMARY
 ---------------------------------------------------------------------------------------
                       OUTER     INNER         MAXIMUM                    MAXIMUM CHANGE
                   ITERATION ITERATION          CHANGE                    MODEL-(CELLID)
 ---------------------------------------------------------------------------------------
 Linear Solver             1         4    8.318037E-03                   1_GWF-(1,30,19)
 Under-relaxation          1              8.318037E-03                   1_GWF-(1,30,19)
 Linear Solver             2         2    3.028106E-04                   1_GWF-(1,30,29)
 Under-relaxation          2              3.028106E-04                   1_GWF-(1,30,29)
 Linear Solver             3         1   -2.955531E-05                   1_GWF-(1,30,28)

 3 CALLS TO NUMERICAL SOLUTION IN TIME STEP 8 STRESS PERIOD 2
 7 TOTAL ITERATIONS


 OUTER ITERATION SUMMARY
 ---------------------------------------------------------------------------------------
                       OUTER     INNER         MAXIMUM                    MAXIMUM CHANGE
                   ITERATION ITERATION          CHANGE                    MODEL-(CELLID)
 ---------------------------------------------------------------------------------------
 Linear Solver             1         4    8.071491E-03                   1_GWF-(1,30,17)
 Under-relaxation          1              8.071491E-03                   1_GWF-(1,30,17)
 Linear Solver             2         2    2.768822E-04                   1_GWF-(1,30,29)
 Under-relaxation          2              2.768822E-04                   1_GWF-(1,30,29)
 Linear Solver             3         1   -2.657377E-05                   1_GWF-(1,30,28)

 3 CALLS TO NUMERICAL SOLUTION IN TIME STEP 9 STRESS PERIOD 2
 7 TOTAL ITERATIONS


 OUTER ITERATION SUMMARY
 ---------------------------------------------------------------------------------------
                       OUTER     INNER         MAXIMUM                    MAXIMUM CHANGE
                   ITERATION ITERATION          CHANGE                    MODEL-(CELLID)
 ---------------------------------------------------------------------------------------
 Linear Solver             1         4    7.893929E-03                   1_GWF-(1,30,15)
 Under-relaxation          1              7.893929E-03                   1_GWF-(1,30,15)
 Linear Solver             2         2    2.562329E-04                   1_GWF-(1,30,29)
 Under-relaxation          2              2.562329E-04                   1_GWF-(1,30,29)
 Linear Solver             3         1   -2.429933E-05                   1_GWF-(1,30,28)

 3 CALLS TO NUMERICAL SOLUTION IN TIME STEP 10 STRESS PERIOD 2
 7 TOTAL ITERATIONS
1
                            STRESS PERIOD NO.    3, LENGTH =   30.00000    
                            -----------------------------------------------

                              NUMBER OF TIME STEPS =    10

                               MULTIPLIER FOR DELT =     1.000

                            INITIAL TIME STEP SIZE =   3.000000    


 OUTER ITERATION SUMMARY
 ---------------------------------------------------------------------------------------
                       OUTER     INNER         MAXIMUM                    MAXIMUM CHANGE
                   ITERATION ITERATION          CHANGE                    MODEL-(CELLID)
 ---------------------------------------------------------------------------------------
 Linear Solver             1         5    0.190616                       1_GWF-(1,29,29)
 Under-relaxation          1              0.190616                       1_GWF-(1,29,29)
 Linear Solver             2         4   -8.104332E-03                   1_GWF-(1,29,27)
 Under-relaxation          2             -8.104332E-03                   1_GWF-(1,29,27)
 Linear Solver             3         3   -4.028657E-04                   1_GWF-(1,30,28)
 Under-relaxation          3             -4.028657E-04                   1_GWF-(1,30,28)
 Linear Solver             4         1    3.892995E-05                    1_GWF-(1,2,27)

 4 CALLS TO NUMERICAL SOLUTION IN TIME STEP 1 STRESS PERIOD 3
 13 TOTAL ITERATIONS


 OUTER ITERATION SUMMARY
 ---------------------------------------------------------------------------------------
                       OUTER     INNER         MAXIMUM                    MAXIMUM CHANGE
                   ITERATION ITERATION          CHANGE                    MODEL-(CELLID)
 ---------------------------------------------------------------------------------------
 Linear Solver             1         5    5.191766E-02                    1_GWF-(1,1,29)
 Under-relaxation          1              5.191766E-02                    1_GWF-(1,1,29)
 Linear Solver             2         3   -2.468937E-03                    1_GWF-(1,3,26)
 Under-relaxation          2             -2.468937E-03                    1_GWF-(1,3,26)
 Linear Solver             3         2   -1.754553E-04                   1_GWF-(1,30,28)
 Under-relaxation          3             -1.754553E-04                   1_GWF-(1,30,28)
 Linear Solver             4         1    1.404056E-05                    1_GWF-(1,3,26)

 4 CALLS TO NUMERICAL SOLUTION IN TIME STEP 2 STRESS PERIOD 3
 11 TOTAL ITERATIONS


 OUTER ITERATION SUMMARY
 ---------------------------------------------------------------------------------------
                       OUTER     INNER         MAXIMUM                    MAXIMUM CHANGE
                   ITERATION ITERATION          CHANGE                    MODEL-(CELLID)
 ---------------------------------------------------------------------------------------
 Linear Solver             1         5    2.656875E-02                    1_GWF-(1,1,28)
 Under-relaxation          1              2.656875E-02                    1_GWF-(1,1,28)
 Linear Solver             2         3   -1.105436E-03                    1_GWF-(1,2,25)
 Under-relaxation          2             -1.105436E-03                    1_GWF-(1,2,25)
 Linear Solver             3         1   -9.070089E-05                    1_GWF-(1,2,28)

 3 CALLS TO NUMERICAL SOLUTION IN TIME STEP 3 STRESS PERIOD 3
 9 TOTAL ITERATIONS


 OUTER ITERATION SUMMARY
 ---------------------------------------------------------------------------------------
                       OUTER     INNER         MAXIMUM                    MAXIMUM CHANGE
                   ITERATION ITERATION          CHANGE                    MODEL-(CELLID)
 ---------------------------------------------------------------------------------------
 Linear Solver             1         4    1.639857E-02                    1_GWF-(1,1,27)
 Under-relaxation          1              1.639857E-02                    1_GWF-(1,1,27)
 Linear Solver             2         3   -6.207441E-04                   1_GWF-(1,29,24)
 Under-relaxation          2             -6.207441E-04                   1_GWF-(1,29,24)
 Linear Solver             3         1   -5.289952E-05                    1_GWF-(1,2,27)

 3 CALLS TO NUMERICAL SOLUTION IN TIME STEP 4 STRESS PERIOD 3
 8 TOTAL ITERATIONS


 OUTER ITERATION SUMMARY
 ---------------------------------------------------------------------------------------
                       OUTER     INNER         MAXIMUM                    MAXIMUM CHANGE
                   ITERATION ITERATION          CHANGE                    MODEL-(CELLID)
 ---------------------------------------------------------------------------------------
 Linear Solver             1         4    1.098241E-02                    1_GWF-(1,1,26)
 Under-relaxation          1              1.098241E-02                    1_GWF-(1,1,26)
 Linear Solver             2         3   -3.916748E-04                   1_GWF-(1,29,23)
 Under-relaxation          2             -3.916748E-04                   1_GWF-(1,29,23)
 Linear Solver             3         1   -3.532953E-05                    1_GWF-(1,2,27)

 3 CALLS TO NUMERICAL SOLUTION IN TIME STEP 5 STRESS PERIOD 3
 8 TOTAL ITERATIONS


 OUTER ITERATION SUMMARY
 ---------------------------------------------------------------------------------------
                       OUTER     INNER         MAXIMUM                    MAXIMUM CHANGE
                   ITERATION ITERATION          CHANGE                    MODEL-(CELLID)
 ---------------------------------------------------------------------------------------
 Linear Solver             1         4    7.970004E-03                    1_GWF-(1,1,26)
 Under-relaxation          1              7.970004E-03                    1_GWF-(1,1,26)
 Linear Solver             2         2    2.725265E-04                   1_GWF-(1,30,29)
 Under-relaxation          2              2.725265E-04                   1_GWF-(1,30,29)
 Linear Solver             3         1   -3.022063E-05                   1_GWF-(1,30,28)

 3 CALLS TO NUMERICAL SOLUTION IN TIME STEP 6 STRESS PERIOD 3
 7 TOTAL ITERATIONS


 OUTER ITERATION SUMMARY
 ---------------------------------------------------------------------------------------
                       OUTER     INNER         MAXIMUM                    MAXIMUM CHANGE
                   ITERATION ITERATION          CHANGE                    MODEL-(CELLID)
 ---------------------------------------------------------------------------------------
 Linear Solver             1         4    5.905058E-03                    1_GWF-(1,2,26)
 Under-relaxation          1              5.905058E-03                    1_GWF-(1,2,26)
 Linear Solver             2         2    2.009831E-04                   1_GWF-(1,30,29)
 Under-relaxation          2              2.009831E-04                   1_GWF-(1,30,29)
 Linear Solver             3         1   -2.167851E-05                   1_GWF-(1,30,27)

 3 CALLS TO NUMERICAL SOLUTION IN TIME STEP 7 STRESS PERIOD 3
 7 TOTAL ITERATIONS


 OUTER ITERATION SUMMARY
 ---------------------------------------------------------------------------------------
                       OUTER     INNER         MAXIMUM                    MAXIMUM CHANGE
                   ITERATION ITERATION          CHANGE                    MODEL-(CELLID)
 ---------------------------------------------------------------------------------------
 Linear Solver             1         4    4.491846E-03                    1_GWF-(1,2,25)
 Under-relaxation          1              4.491846E-03                    1_GWF-(1,2,25)
 Linear Solver             2         2    1.517042E-04                   1_GWF-(1,30,29)
 Under-relaxation          2              1.517042E-04                   1_GWF-(1,30,29)
 Linear Solver             3         1   -1.626336E-05                   1_GWF-(1,30,27)

 3 CALLS TO NUMERICAL SOLUTION IN TIME STEP 8 STRESS PERIOD 3
 7 TOTAL ITERATIONS


 OUTER ITERATION SUMMARY
 ---------------------------------------------------------------------------------------
                       OUTER     INNER         MAXIMUM                    MAXIMUM CHANGE
                   ITERATION ITERATION          CHANGE                    MODEL-(CELLID)
 ---------------------------------------------------------------------------------------
 Linear Solver             1         3   -3.746215E-03                    1_GWF-(1,30,1)
 Under-relaxation          1             -3.746215E-03                    1_GWF-(1,30,1)
 Linear Solver             2         2    1.313390E-04                   1_GWF-(1,30,29)
 Under-relaxation          2              1.313390E-04                   1_GWF-(1,30,29)
 Linear Solver             3         1   -1.344481E-05                    1_GWF-(1,3,26)

 3 CALLS TO NUMERICAL SOLUTION IN TIME STEP 9 STRESS PERIOD 3
 6 TOTAL ITERATIONS


 OUTER ITERATION SUMMARY
 ---------------------------------------------------------------------------------------
                       OUTER     INNER         MAXIMUM                    MAXIMUM CHANGE
                   ITERATION ITERATION          CHANGE                    MODEL-(CELLID)
 ---------------------------------------------------------------------------------------
 Linear Solver             1         3   -3.574568E-03                    1_GWF-(1,30,1)
 Under-relaxation          1             -3.574568E-03                    1_GWF-(1,30,1)
 Linear Solver             2         2    1.023091E-04                   1_GWF-(1,30,29)
 Under-relaxation          2              1.023091E-04                   1_GWF-(1,30,29)
 Linear Solver             3         1    1.137373E-05                    1_GWF-(1,30,1)

 3 CALLS TO NUMERICAL SOLUTION IN TIME STEP 10 STRESS PERIOD 3
 6 TOTAL ITERATIONS
1
                            STRESS PERIOD NO.    4, LENGTH =   30.00000    
                            -----------------------------------------------

                              NUMBER OF TIME STEPS =    10

                               MULTIPLIER FOR DELT =     1.000

                            INITIAL TIME STEP SIZE =   3.000000    


 OUTER ITERATION SUMMARY
 ---------------------------------------------------------------------------------------
                       OUTER     INNER         MAXIMUM                    MAXIMUM CHANGE
                   ITERATION ITERATION          CHANGE                    MODEL-(CELLID)
 ---------------------------------------------------------------------------------------
 Linear Solver             1         5    4.961566E-02                   1_GWF-(1,29,29)
 Under-relaxation          1              4.961566E-02                   1_GWF-(1,29,29)
 Linear Solver             2         3   -2.308594E-03                    1_GWF-(1,3,28)
 Under-relaxation          2             -2.308594E-03                    1_GWF-(1,3,28)
 Linear Solver             3         2   -9.184320E-05                    1_GWF-(1,1,29)

 3 CALLS TO NUMERICAL SOLUTION IN TIME STEP 1 STRESS PERIOD 4
 10 TOTAL ITERATIONS


 OUTER ITERATION SUMMARY
 ---------------------------------------------------------------------------------------
                       OUTER     INNER         MAXIMUM                    MAXIMUM CHANGE
                   ITERATION ITERATION          CHANGE                    MODEL-(CELLID)
 ---------------------------------------------------------------------------------------
 Linear Solver             1         5   -1.543294E-02                    1_GWF-(1,30,1)
 Under-relaxation          1             -1.543294E-02                    1_GWF-(1,30,1)
 Linear Solver             2         3   -7.365433E-04                    1_GWF-(1,3,26)
 Under-relaxation          2             -7.365433E-04                    1_GWF-(1,3,26)
 Linear Solver             3         1   -3.936384E-05                    1_GWF-(1,2,28)

 3 CALLS TO NUMERICAL SOLUTION IN TIME STEP 2 STRESS PERIOD 4
 9 TOTAL ITERATIONS


 OUTER ITERATION SUMMARY
 ---------------------------------------------------------------------------------------
                       OUTER     INNER         MAXIMUM                    MAXIMUM CHANGE
                   ITERATION ITERATION          CHANGE                    MODEL-(CELLID)
 ---------------------------------------------------------------------------------------
 Linear Solver             1         4   -1.515899E-02                     1_GWF-(1,1,1)
 Under-relaxation          1             -1.515899E-02                     1_GWF-(1,1,1)
 Linear Solver             2         2   -3.720929E-04                    1_GWF-(1,1,26)
 Under-relaxation          2             -3.720929E-04                    1_GWF-(1,1,26)
 Linear Solver             3         1   -1.806243E-05                    1_GWF-(1,4,28)

 3 CALLS TO NUMERICAL SOLUTION IN TIME STEP 3 STRESS PERIOD 4
 7 TOTAL ITERATIONS


 OUTER ITERATION SUMMARY
 ---------------------------------------------------------------------------------------
                       OUTER     INNER         MAXIMUM                    MAXIMUM CHANGE
                   ITERATION ITERATION          CHANGE                    MODEL-(CELLID)
 ---------------------------------------------------------------------------------------
 Linear Solver             1         4   -1.488782E-02                    1_GWF-(1,24,1)
 Under-relaxation          1             -1.488782E-02                    1_GWF-(1,24,1)
 Linear Solver             2         2   -2.245553E-04                    1_GWF-(1,1,26)
 Under-relaxation          2             -2.245553E-04                    1_GWF-(1,1,26)
 Linear Solver             3         1    8.992468E-06                   1_GWF-(1,30,24)

 3 CALLS TO NUMERICAL SOLUTION IN TIME STEP 4 STRESS PERIOD 4
 7 TOTAL ITERATIONS


 OUTER ITERATION SUMMARY
 ---------------------------------------------------------------------------------------
                       OUTER     INNER         MAXIMUM                    MAXIMUM CHANGE
                   ITERATION ITERATION          CHANGE                    MODEL-(CELLID)
 ---------------------------------------------------------------------------------------
 Linear Solver             1         4   -1.461641E-02                    1_GWF-(1,25,1)
 Under-relaxation          1             -1.461641E-02                    1_GWF-(1,25,1)
 Linear Solver             2         2   -1.621709E-04                   1_GWF-(1,30,26)
 Under-relaxation          2             -1.621709E-04                   1_GWF-(1,30,26)
 Linear Solver             3         1    6.760381E-06                   1_GWF-(1,30,24)

 3 CALLS TO NUMERICAL SOLUTION IN TIME STEP 5 STRESS PERIOD 4
 7 TOTAL ITERATIONS


 OUTER ITERATION SUMMARY
 ---------------------------------------------------------------------------------------
                       OUTER     INNER         MAXIMUM                    MAXIMUM CHANGE
                   ITERATION ITERATION          CHANGE                    MODEL-(CELLID)
 ---------------------------------------------------------------------------------------
 Linear Solver             1         4   -1.434459E-02                    1_GWF-(1,25,1)
 Under-relaxation          1             -1.434459E-02                    1_GWF-(1,25,1)
 Linear Solver             2         2   -1.410318E-04                   1_GWF-(1,30,27)
 Under-relaxation          2             -1.410318E-04                   1_GWF-(1,30,27)
 Linear Solver             3         1    6.343732E-06                   1_GWF-(1,30,25)

 3 CALLS TO NUMERICAL SOLUTION IN TIME STEP 6 STRESS PERIOD 4
 7 TOTAL ITERATIONS


 OUTER ITERATION SUMMARY
 ---------------------------------------------------------------------------------------
                       OUTER     INNER         MAXIMUM                    MAXIMUM CHANGE
                   ITERATION ITERATION          CHANGE                    MODEL-(CELLID)
 ---------------------------------------------------------------------------------------
 Linear Solver             1         4   -1.407270E-02                    1_GWF-(1,25,1)
 Under-relaxation          1             -1.407270E-02                    1_GWF-(1,25,1)
 Linear Solver             2         2   -1.393481E-04                   1_GWF-(1,30,28)
 Under-relaxation          2             -1.393481E-04                   1_GWF-(1,30,28)
 Linear Solver             3         1    7.477628E-06                   1_GWF-(1,30,26)

 3 CALLS TO NUMERICAL SOLUTION IN TIME STEP 7 STRESS PERIOD 4
 7 TOTAL ITERATIONS


 OUTER ITERATION SUMMARY
 ---------------------------------------------------------------------------------------
                       OUTER     INNER         MAXIMUM                    MAXIMUM CHANGE
                   ITERATION ITERATION          CHANGE                    MODEL-(CELLID)
 ---------------------------------------------------------------------------------------
 Linear Solver             1         4   -1.380159E-02                    1_GWF-(1,25,1)
 Under-relaxation          1             -1.380159E-02                    1_GWF-(1,25,1)
 Linear Solver             2         2   -1.444614E-04                   1_GWF-(1,30,28)
 Under-relaxation          2             -1.444614E-04                   1_GWF-(1,30,28)
 Linear Solver             3         1    8.525228E-06                   1_GWF-(1,30,27)

 3 CALLS TO NUMERICAL SOLUTION IN TIME STEP 8 STRESS PERIOD 4
 7 TOTAL ITERATIONS


 OUTER ITERATION SUMMARY
 ---------------------------------------------------------------------------------------
                       OUTER     INNER         MAXIMUM                    MAXIMUM CHANGE
                   ITERATION ITERATION          CHANGE                    MODEL-(CELLID)
 ---------------------------------------------------------------------------------------
 Linear Solver             1         4   -1.353240E-02                    1_GWF-(1,25,1)
 Under-relaxation          1             -1.353240E-02                    1_GWF-(1,25,1)
 Linear Solver             2         2   -1.474810E-04                   1_GWF-(1,30,28)
 Under-relaxation          2             -1.474810E-04                   1_GWF-(1,30,28)
 Linear Solver             3         1    9.305566E-06                   1_GWF-(1,30,27)

 3 CALLS TO NUMERICAL SOLUTION IN TIME STEP 9 STRESS PERIOD 4
 7 TOTAL ITERATIONS


 OUTER ITERATION SUMMARY
 ---------------------------------------------------------------------------------------
                       OUTER     INNER         MAXIMUM                    MAXIMUM CHANGE
                   ITERATION ITERATION          CHANGE                    MODEL-(CELLID)
 ---------------------------------------------------------------------------------------
 Linear Solver             1         4   -1.326632E-02                    1_GWF-(1,25,1)
 Under-relaxation          1             -1.326632E-02                    1_GWF-(1,25,1)
 Linear Solver             2         2   -1.489869E-04                   1_GWF-(1,30,28)
 Under-relaxation          2             -1.489869E-04                   1_GWF-(1,30,28)
 Linear Solver             3         1    9.767998E-06                   1_GWF-(1,30,27)

 3 CALLS TO NUMERICAL SOLUTION IN TIME STEP 10 STRESS PERIOD 4
 7 TOTAL ITERATIONS
1
                            STRESS PERIOD NO.    5, LENGTH =   30.00000    
                            -----------------------------------------------

                              NUMBER OF TIME STEPS =    10

                               MULTIPLIER FOR DELT =     1.000

                            INITIAL TIME STEP SIZE =   3.000000    


 OUTER ITERATION SUMMARY
 ---------------------------------------------------------------------------------------
                       OUTER     INNER         MAXIMUM                    MAXIMUM CHANGE
                   ITERATION ITERATION          CHANGE                    MODEL-(CELLID)
 ---------------------------------------------------------------------------------------
 Linear Solver             1         5    3.633853E-02                   1_GWF-(1,29,29)
 Under-relaxation          1              3.633853E-02                   1_GWF-(1,29,29)
 Linear Solver             2         3   -1.655711E-03                    1_GWF-(1,3,27)
 Under-relaxation          2             -1.655711E-03                    1_GWF-(1,3,27)
 Linear Solver             3         1   -6.171532E-05                    1_GWF-(1,2,29)

 3 CALLS TO NUMERICAL SOLUTION IN TIME STEP 1 STRESS PERIOD 5
 9 TOTAL ITERATIONS


 OUTER ITERATION SUMMARY
 ---------------------------------------------------------------------------------------
                       OUTER     INNER         MAXIMUM                    MAXIMUM CHANGE
                   ITERATION ITERATION          CHANGE                    MODEL-(CELLID)
 ---------------------------------------------------------------------------------------
 Linear Solver             1         4   -1.886546E-02                     1_GWF-(1,1,1)
 Under-relaxation          1             -1.886546E-02                     1_GWF-(1,1,1)
 Linear Solver             2         3   -5.931246E-04                    1_GWF-(1,1,27)
 Under-relaxation          2             -5.931246E-04                    1_GWF-(1,1,27)
 Linear Solver             3         1   -2.457588E-05                    1_GWF-(1,2,28)

 3 CALLS TO NUMERICAL SOLUTION IN TIME STEP 2 STRESS PERIOD 5
 8 TOTAL ITERATIONS


 OUTER ITERATION SUMMARY
 ---------------------------------------------------------------------------------------
                       OUTER     INNER         MAXIMUM                    MAXIMUM CHANGE
                   ITERATION ITERATION          CHANGE                    MODEL-(CELLID)
 ---------------------------------------------------------------------------------------
 Linear Solver             1         4   -1.856238E-02                     1_GWF-(1,1,1)
 Under-relaxation          1             -1.856238E-02                     1_GWF-(1,1,1)
 Linear Solver             2         2   -3.250043E-04                    1_GWF-(1,1,26)
 Under-relaxation          2             -3.250043E-04                    1_GWF-(1,1,26)
 Linear Solver             3         1    1.272587E-05                   1_GWF-(1,30,25)

 3 CALLS TO NUMERICAL SOLUTION IN TIME STEP 3 STRESS PERIOD 5
 7 TOTAL ITERATIONS


 OUTER ITERATION SUMMARY
 ---------------------------------------------------------------------------------------
                       OUTER     INNER         MAXIMUM                    MAXIMUM CHANGE
                   ITERATION ITERATION          CHANGE                    MODEL-(CELLID)
 ---------------------------------------------------------------------------------------
 Linear Solver             1         4   -1.826490E-02                    1_GWF-(1,24,1)
 Under-relaxation          1             -1.826490E-02                    1_GWF-(1,24,1)
 Linear Solver             2         2   -2.211654E-04                   1_GWF-(1,30,26)
 Under-relaxation          2             -2.211654E-04                   1_GWF-(1,30,26)
 Linear Solver             3         1    9.486654E-06                   1_GWF-(1,30,25)

 3 CALLS TO NUMERICAL SOLUTION IN TIME STEP 4 STRESS PERIOD 5
 7 TOTAL ITERATIONS


 OUTER ITERATION SUMMARY
 ---------------------------------------------------------------------------------------
                       OUTER     INNER         MAXIMUM                    MAXIMUM CHANGE
                   ITERATION ITERATION          CHANGE                    MODEL-(CELLID)
 ---------------------------------------------------------------------------------------
 Linear Solver             1         4   -1.796639E-02                    1_GWF-(1,25,1)
 Under-relaxation          1             -1.796639E-02                    1_GWF-(1,25,1)
 Linear Solver             2         2   -1.901421E-04                   1_GWF-(1,30,27)
 Under-relaxation          2             -1.901421E-04                   1_GWF-(1,30,27)
 Linear Solver             3         1    8.694294E-06                   1_GWF-(1,30,25)

 3 CALLS TO NUMERICAL SOLUTION IN TIME STEP 5 STRESS PERIOD 5
 7 TOTAL ITERATIONS


 OUTER ITERATION SUMMARY
 ---------------------------------------------------------------------------------------
                       OUTER     INNER         MAXIMUM                    MAXIMUM CHANGE
                   ITERATION ITERATION          CHANGE                    MODEL-(CELLID)
 ---------------------------------------------------------------------------------------
 Linear Solver             1         4   -1.766744E-02                    1_GWF-(1,25,1)
 Under-relaxation          1             -1.766744E-02                    1_GWF-(1,25,1)
 Linear Solver             2         2   -1.832275E-04                   1_GWF-(1,30,28)
 Under-relaxation          2             -1.832275E-04                   1_GWF-(1,30,28)
 Linear Solver             3         1    9.650277E-06                   1_GWF-(1,30,26)

 3 CALLS TO NUMERICAL SOLUTION IN TIME STEP 6 STRESS PERIOD 5
 7 TOTAL ITERATIONS


 OUTER ITERATION SUMMARY
 ---------------------------------------------------------------------------------------
                       OUTER     INNER         MAXIMUM                    MAXIMUM CHANGE
                   ITERATION ITERATION          CHANGE                    MODEL-(CELLID)
 ---------------------------------------------------------------------------------------
 Linear Solver             1         4   -1.736833E-02                    1_GWF-(1,25,1)
 Under-relaxation          1             -1.736833E-02                    1_GWF-(1,25,1)
 Linear Solver             2         2   -1.863239E-04                   1_GWF-(1,30,28)
 Under-relaxation          2             -1.863239E-04                   1_GWF-(1,30,28)
 Linear Solver             3         1    1.034636E-05                   1_GWF-(1,30,27)

 3 CALLS TO NUMERICAL SOLUTION IN TIME STEP 7 STRESS PERIOD 5
 7 TOTAL ITERATIONS


 OUTER ITERATION SUMMARY
 ---------------------------------------------------------------------------------------
                       OUTER     INNER         MAXIMUM                    MAXIMUM CHANGE
                   ITERATION ITERATION          CHANGE                    MODEL-(CELLID)
 ---------------------------------------------------------------------------------------
 Linear Solver             1         4   -1.706974E-02                    1_GWF-(1,25,1)
 Under-relaxation          1             -1.706974E-02                    1_GWF-(1,25,1)
 Linear Solver             2         2   -1.874469E-04                   1_GWF-(1,30,28)
 Under-relaxation          2             -1.874469E-04                   1_GWF-(1,30,28)
 Linear Solver             3         1    1.100546E-05                   1_GWF-(1,30,27)

 3 CALLS TO NUMERICAL SOLUTION IN TIME STEP 8 STRESS PERIOD 5
 7 TOTAL ITERATIONS


 OUTER ITERATION SUMMARY
 ---------------------------------------------------------------------------------------
                       OUTER     INNER         MAXIMUM                    MAXIMUM CHANGE
                   ITERATION ITERATION          CHANGE                    MODEL-(CELLID)
 ---------------------------------------------------------------------------------------
 Linear Solver             1         4   -1.677261E-02                    1_GWF-(1,25,1)
 Under-relaxation          1             -1.677261E-02                    1_GWF-(1,25,1)
 Linear Solver             2         2   -1.871540E-04                   1_GWF-(1,30,28)
 Under-relaxation          2             -1.871540E-04                   1_GWF-(1,30,28)
 Linear Solver             3         1    1.132744E-05                   1_GWF-(1,30,27)

 3 CALLS TO NUMERICAL SOLUTION IN TIME STEP 9 STRESS PERIOD 5
 7 TOTAL ITERATIONS


 OUTER ITERATION SUMMARY
 ---------------------------------------------------------------------------------------
                       OUTER     INNER         MAXIMUM                    MAXIMUM CHANGE
                   ITERATION ITERATION          CHANGE                    MODEL-(CELLID)
 ---------------------------------------------------------------------------------------
 Linear Solver             1         4   -1.647799E-02                    1_GWF-(1,25,1)
 Under-relaxation          1             -1.647799E-02                    1_GWF-(1,25,1)
 Linear Solver             2         2   -1.858929E-04                   1_GWF-(1,30,28)
 Under-relaxation          2             -1.858929E-04                   1_GWF-(1,30,28)
 Linear Solver             3         1    1.144721E-05                   1_GWF-(1,30,27)

 3 CALLS TO NUMERICAL SOLUTION IN TIME STEP 10 STRESS PERIOD 5
 7 TOTAL ITERATIONS
1
                            STRESS PERIOD NO.    6, LENGTH =   30.00000    
                            -----------------------------------------------

                              NUMBER OF TIME STEPS =    10

                               MULTIPLIER FOR DELT =     1.000

                            INITIAL TIME STEP SIZE =   3.000000    


 OUTER ITERATION SUMMARY
 ---------------------------------------------------------------------------------------
                       OUTER     INNER         MAXIMUM                    MAXIMUM CHANGE
                   ITERATION ITERATION          CHANGE                    MODEL-(CELLID)
 ---------------------------------------------------------------------------------------
 Linear Solver             1         7    0.824947                        1_GWF-(1,1,29)
 Under-relaxation          1              0.824947                        1_GWF-(1,1,29)
 Linear Solver             2         5    3.063089E-02                   1_GWF-(1,29,28)
 Under-relaxation          2              3.063089E-02                   1_GWF-(1,29,28)
 Linear Solver             3         3    9.941880E-04                   1_GWF-(1,30,28)
 Under-relaxation          3              9.941880E-04                   1_GWF-(1,30,28)
 Linear Solver             4         1    2.611971E-05                    1_GWF-(1,2,28)

 4 CALLS TO NUMERICAL SOLUTION IN TIME STEP 1 STRESS PERIOD 6
 16 TOTAL ITERATIONS


 OUTER ITERATION SUMMARY
 ---------------------------------------------------------------------------------------
                       OUTER     INNER         MAXIMUM                    MAXIMUM CHANGE
                   ITERATION ITERATION          CHANGE                    MODEL-(CELLID)
 ---------------------------------------------------------------------------------------
 Linear Solver             1         6    0.228270                       1_GWF-(1,27,28)
 Under-relaxation          1              0.228270                       1_GWF-(1,27,28)
 Linear Solver             2         4    3.757482E-03                    1_GWF-(1,5,27)
 Under-relaxation          2              3.757482E-03                    1_GWF-(1,5,27)
 Linear Solver             3         1   -4.387132E-05                    1_GWF-(1,3,24)

 3 CALLS TO NUMERICAL SOLUTION IN TIME STEP 2 STRESS PERIOD 6
 11 TOTAL ITERATIONS


 OUTER ITERATION SUMMARY
 ---------------------------------------------------------------------------------------
                       OUTER     INNER         MAXIMUM                    MAXIMUM CHANGE
                   ITERATION ITERATION          CHANGE                    MODEL-(CELLID)
 ---------------------------------------------------------------------------------------
 Linear Solver             1         6    0.121996                       1_GWF-(1,30,27)
 Under-relaxation          1              0.121996                       1_GWF-(1,30,27)
 Linear Solver             2         3    1.289912E-03                    1_GWF-(1,4,27)
 Under-relaxation          2              1.289912E-03                    1_GWF-(1,4,27)
 Linear Solver             3         1   -3.116027E-05                    1_GWF-(1,2,24)

 3 CALLS TO NUMERICAL SOLUTION IN TIME STEP 3 STRESS PERIOD 6
 10 TOTAL ITERATIONS


 OUTER ITERATION SUMMARY
 ---------------------------------------------------------------------------------------
                       OUTER     INNER         MAXIMUM                    MAXIMUM CHANGE
                   ITERATION ITERATION          CHANGE                    MODEL-(CELLID)
 ---------------------------------------------------------------------------------------
 Linear Solver             1         5    7.949765E-02                    1_GWF-(1,3,26)
 Under-relaxation          1              7.949765E-02                    1_GWF-(1,3,26)
 Linear Solver             2         3   -7.544582E-04                   1_GWF-(1,30,20)
 Under-relaxation          2             -7.544582E-04                   1_GWF-(1,30,20)
 Linear Solver             3         1   -2.104032E-05                   1_GWF-(1,30,24)

 3 CALLS TO NUMERICAL SOLUTION IN TIME STEP 4 STRESS PERIOD 6
 9 TOTAL ITERATIONS


 OUTER ITERATION SUMMARY
 ---------------------------------------------------------------------------------------
                       OUTER     INNER         MAXIMUM                    MAXIMUM CHANGE
                   ITERATION ITERATION          CHANGE                    MODEL-(CELLID)
 ---------------------------------------------------------------------------------------
 Linear Solver             1         5    5.648766E-02                    1_GWF-(1,3,25)
 Under-relaxation          1              5.648766E-02                    1_GWF-(1,3,25)
 Linear Solver             2         3   -5.572347E-04                   1_GWF-(1,29,19)
 Under-relaxation          2             -5.572347E-04                   1_GWF-(1,29,19)
 Linear Solver             3         1   -1.401466E-05                   1_GWF-(1,30,24)

 3 CALLS TO NUMERICAL SOLUTION IN TIME STEP 5 STRESS PERIOD 6
 9 TOTAL ITERATIONS


 OUTER ITERATION SUMMARY
 ---------------------------------------------------------------------------------------
                       OUTER     INNER         MAXIMUM                    MAXIMUM CHANGE
                   ITERATION ITERATION          CHANGE                    MODEL-(CELLID)
 ---------------------------------------------------------------------------------------
 Linear Solver             1         5    4.244415E-02                    1_GWF-(1,3,25)
 Under-relaxation          1              4.244415E-02                    1_GWF-(1,3,25)
 Linear Solver             2         3   -4.252939E-04                   1_GWF-(1,29,19)
 Under-relaxation          2             -4.252939E-04                   1_GWF-(1,29,19)
 Linear Solver             3         1   -9.650806E-06                   1_GWF-(1,30,24)

 3 CALLS TO NUMERICAL SOLUTION IN TIME STEP 6 STRESS PERIOD 6
 9 TOTAL ITERATIONS


 OUTER ITERATION SUMMARY
 ---------------------------------------------------------------------------------------
                       OUTER     INNER         MAXIMUM                    MAXIMUM CHANGE
                   ITERATION ITERATION          CHANGE                    MODEL-(CELLID)
 ---------------------------------------------------------------------------------------
 Linear Solver             1         5    3.298181E-02                    1_GWF-(1,3,24)
 Under-relaxation          1              3.298181E-02                    1_GWF-(1,3,24)
 Linear Solver             2         2   -3.320475E-04                   1_GWF-(1,30,18)
 Under-relaxation          2             -3.320475E-04                   1_GWF-(1,30,18)
 Linear Solver             3         1   -1.430769E-05                    1_GWF-(1,2,21)

 3 CALLS TO NUMERICAL SOLUTION IN TIME STEP 7 STRESS PERIOD 6
 8 TOTAL ITERATIONS


 OUTER ITERATION SUMMARY
 ---------------------------------------------------------------------------------------
                       OUTER     INNER         MAXIMUM                    MAXIMUM CHANGE
                   ITERATION ITERATION          CHANGE                    MODEL-(CELLID)
 ---------------------------------------------------------------------------------------
 Linear Solver             1         5    2.619832E-02                    1_GWF-(1,3,24)
 Under-relaxation          1              2.619832E-02                    1_GWF-(1,3,24)
 Linear Solver             2         2   -2.635300E-04                   1_GWF-(1,30,18)
 Under-relaxation          2             -2.635300E-04                   1_GWF-(1,30,18)
 Linear Solver             3         1   -1.083462E-05                    1_GWF-(1,3,22)

 3 CALLS TO NUMERICAL SOLUTION IN TIME STEP 8 STRESS PERIOD 6
 8 TOTAL ITERATIONS


 OUTER ITERATION SUMMARY
 ---------------------------------------------------------------------------------------
                       OUTER     INNER         MAXIMUM                    MAXIMUM CHANGE
                   ITERATION ITERATION          CHANGE                    MODEL-(CELLID)
 ---------------------------------------------------------------------------------------
 Linear Solver             1         5    2.100548E-02                    1_GWF-(1,3,24)
 Under-relaxation          1              2.100548E-02                    1_GWF-(1,3,24)
 Linear Solver             2         2   -2.110772E-04                   1_GWF-(1,30,18)
 Under-relaxation          2             -2.110772E-04                   1_GWF-(1,30,18)
 Linear Solver             3         1   -8.488551E-06                    1_GWF-(1,3,22)

 3 CALLS TO NUMERICAL SOLUTION IN TIME STEP 9 STRESS PERIOD 6
 8 TOTAL ITERATIONS


 OUTER ITERATION SUMMARY
 ---------------------------------------------------------------------------------------
                       OUTER     INNER         MAXIMUM                    MAXIMUM CHANGE
                   ITERATION ITERATION          CHANGE                    MODEL-(CELLID)
 ---------------------------------------------------------------------------------------
 Linear Solver             1         4    1.717462E-02                   1_GWF-(1,29,23)
 Under-relaxation          1              1.717462E-02                   1_GWF-(1,29,23)
 Linear Solver             2         2   -1.800692E-04                   1_GWF-(1,30,17)
 Under-relaxation          2             -1.800692E-04                   1_GWF-(1,30,17)
 Linear Solver             3         1   -9.041831E-06                    1_GWF-(1,30,1)

 3 CALLS TO NUMERICAL SOLUTION IN TIME STEP 10 STRESS PERIOD 6
 7 TOTAL ITERATIONS
1
                            STRESS PERIOD NO.    7, LENGTH =   30.00000    
                            -----------------------------------------------

                              NUMBER OF TIME STEPS =    10

                               MULTIPLIER FOR DELT =     1.000

                            INITIAL TIME STEP SIZE =   3.000000    


 OUTER ITERATION SUMMARY
 ---------------------------------------------------------------------------------------
                       OUTER     INNER         MAXIMUM                    MAXIMUM CHANGE
                   ITERATION ITERATION          CHANGE                    MODEL-(CELLID)
 ---------------------------------------------------------------------------------------
 Linear Solver             1         7   -0.607619                        1_GWF-(1,1,29)
 Under-relaxation          1             -0.607619                        1_GWF-(1,1,29)
 Linear Solver             2         5    2.663391E-02                    1_GWF-(1,1,28)
 Under-relaxation          2              2.663391E-02                    1_GWF-(1,1,28)
 Linear Solver             3         3   -8.265043E-04                    1_GWF-(1,3,26)
 Under-relaxation          3             -8.265043E-04                    1_GWF-(1,3,26)
 Linear Solver             4         1   -4.582553E-05                    1_GWF-(1,2,28)

 4 CALLS TO NUMERICAL SOLUTION IN TIME STEP 1 STRESS PERIOD 7
 16 TOTAL ITERATIONS


 OUTER ITERATION SUMMARY
 ---------------------------------------------------------------------------------------
                       OUTER     INNER         MAXIMUM                    MAXIMUM CHANGE
                   ITERATION ITERATION          CHANGE                    MODEL-(CELLID)
 ---------------------------------------------------------------------------------------
 Linear Solver             1         6   -0.175221                       1_GWF-(1,30,28)
 Under-relaxation          1             -0.175221                       1_GWF-(1,30,28)
 Linear Solver             2         4    6.761151E-03                    1_GWF-(1,6,26)
 Under-relaxation          2              6.761151E-03                    1_GWF-(1,6,26)
 Linear Solver             3         2    2.726902E-04                    1_GWF-(1,1,28)
 Under-relaxation          3              2.726902E-04                    1_GWF-(1,1,28)
 Linear Solver             4         1   -2.015439E-05                    1_GWF-(1,5,27)

 4 CALLS TO NUMERICAL SOLUTION IN TIME STEP 2 STRESS PERIOD 7
 13 TOTAL ITERATIONS


 OUTER ITERATION SUMMARY
 ---------------------------------------------------------------------------------------
                       OUTER     INNER         MAXIMUM                    MAXIMUM CHANGE
                   ITERATION ITERATION          CHANGE                    MODEL-(CELLID)
 ---------------------------------------------------------------------------------------
 Linear Solver             1         6   -9.528150E-02                    1_GWF-(1,1,27)
 Under-relaxation          1             -9.528150E-02                    1_GWF-(1,1,27)
 Linear Solver             2         4    2.794662E-03                    1_GWF-(1,6,25)
 Under-relaxation          2              2.794662E-03                    1_GWF-(1,6,25)
 Linear Solver             3         2    1.491006E-04                    1_GWF-(1,1,28)
 Under-relaxation          3              1.491006E-04                    1_GWF-(1,1,28)
 Linear Solver             4         1   -6.649776E-06                    1_GWF-(1,5,26)

 4 CALLS TO NUMERICAL SOLUTION IN TIME STEP 3 STRESS PERIOD 7
 13 TOTAL ITERATIONS


 OUTER ITERATION SUMMARY
 ---------------------------------------------------------------------------------------
                       OUTER     INNER         MAXIMUM                    MAXIMUM CHANGE
                   ITERATION ITERATION          CHANGE                    MODEL-(CELLID)
 ---------------------------------------------------------------------------------------
 Linear Solver             1         5   -6.395045E-02                    1_GWF-(1,3,26)
 Under-relaxation          1             -6.395045E-02                    1_GWF-(1,3,26)
 Linear Solver             2         3    1.527756E-03                    1_GWF-(1,2,24)
 Under-relaxation          2              1.527756E-03                    1_GWF-(1,2,24)
 Linear Solver             3         1    9.954299E-05                    1_GWF-(1,2,27)

 3 CALLS TO NUMERICAL SOLUTION IN TIME STEP 4 STRESS PERIOD 7
 9 TOTAL ITERATIONS


 OUTER ITERATION SUMMARY
 ---------------------------------------------------------------------------------------
                       OUTER     INNER         MAXIMUM                    MAXIMUM CHANGE
                   ITERATION ITERATION          CHANGE                    MODEL-(CELLID)
 ---------------------------------------------------------------------------------------
 Linear Solver             1         5   -4.771954E-02                    1_GWF-(1,1,25)
 Under-relaxation          1             -4.771954E-02                    1_GWF-(1,1,25)
 Linear Solver             2         3   -9.705654E-04                    1_GWF-(1,1,29)
 Under-relaxation          2             -9.705654E-04                    1_GWF-(1,1,29)
 Linear Solver             3         1    6.714072E-05                    1_GWF-(1,2,27)

 3 CALLS TO NUMERICAL SOLUTION IN TIME STEP 5 STRESS PERIOD 7
 9 TOTAL ITERATIONS


 OUTER ITERATION SUMMARY
 ---------------------------------------------------------------------------------------
                       OUTER     INNER         MAXIMUM                    MAXIMUM CHANGE
                   ITERATION ITERATION          CHANGE                    MODEL-(CELLID)
 ---------------------------------------------------------------------------------------
 Linear Solver             1         5   -3.823622E-02                    1_GWF-(1,1,25)
 Under-relaxation          1             -3.823622E-02                    1_GWF-(1,1,25)
 Linear Solver             2         3   -7.361858E-04                    1_GWF-(1,1,29)
 Under-relaxation          2             -7.361858E-04                    1_GWF-(1,1,29)
 Linear Solver             3         1    4.660571E-05                    1_GWF-(1,2,27)

 3 CALLS TO NUMERICAL SOLUTION IN TIME STEP 6 STRESS PERIOD 7
 9 TOTAL ITERATIONS


 OUTER ITERATION SUMMARY
 ---------------------------------------------------------------------------------------
                       OUTER     INNER         MAXIMUM                    MAXIMUM CHANGE
                   ITERATION ITERATION          CHANGE                    MODEL-(CELLID)
 ---------------------------------------------------------------------------------------
 Linear Solver             1         5   -3.218551E-02                    1_GWF-(1,1,24)
 Under-relaxation          1             -3.218551E-02                    1_GWF-(1,1,24)
 Linear Solver             2         3   -5.855156E-04                    1_GWF-(1,3,28)
 Under-relaxation          2             -5.855156E-04                    1_GWF-(1,3,28)
 Linear Solver             3         1    3.406616E-05                   1_GWF-(1,30,27)

 3 CALLS TO NUMERICAL SOLUTION IN TIME STEP 7 STRESS PERIOD 7
 9 TOTAL ITERATIONS


 OUTER ITERATION SUMMARY
 ---------------------------------------------------------------------------------------
                       OUTER     INNER         MAXIMUM                    MAXIMUM CHANGE
                   ITERATION ITERATION          CHANGE                    MODEL-(CELLID)
 ---------------------------------------------------------------------------------------
 Linear Solver             1         5   -2.796697E-02                    1_GWF-(1,1,23)
 Under-relaxation          1             -2.796697E-02                    1_GWF-(1,1,23)
 Linear Solver             2         3   -5.036793E-04                    1_GWF-(1,3,28)
 Under-relaxation          2             -5.036793E-04                    1_GWF-(1,3,28)
 Linear Solver             3         1    2.664992E-05                    1_GWF-(1,2,26)

 3 CALLS TO NUMERICAL SOLUTION IN TIME STEP 8 STRESS PERIOD 7
 9 TOTAL ITERATIONS


 OUTER ITERATION SUMMARY
 ---------------------------------------------------------------------------------------
                       OUTER     INNER         MAXIMUM                    MAXIMUM CHANGE
                   ITERATION ITERATION          CHANGE                    MODEL-(CELLID)
 ---------------------------------------------------------------------------------------
 Linear Solver             1         5   -2.493336E-02                    1_GWF-(1,1,22)
 Under-relaxation          1             -2.493336E-02                    1_GWF-(1,1,22)
 Linear Solver             2         2   -4.497969E-04                   1_GWF-(1,30,28)
 Under-relaxation          2             -4.497969E-04                   1_GWF-(1,30,28)
 Linear Solver             3         1    3.357653E-05                   1_GWF-(1,30,27)

 3 CALLS TO NUMERICAL SOLUTION IN TIME STEP 9 STRESS PERIOD 7
 8 TOTAL ITERATIONS


 OUTER ITERATION SUMMARY
 ---------------------------------------------------------------------------------------
                       OUTER     INNER         MAXIMUM                    MAXIMUM CHANGE
                   ITERATION ITERATION          CHANGE                    MODEL-(CELLID)
 ---------------------------------------------------------------------------------------
 Linear Solver             1         4   -2.272508E-02                   1_GWF-(1,29,22)
 Under-relaxation          1             -2.272508E-02                   1_GWF-(1,29,22)
 Linear Solver             2         2   -4.093152E-04                   1_GWF-(1,30,28)
 Under-relaxation          2             -4.093152E-04                   1_GWF-(1,30,28)
 Linear Solver             3         1    2.800558E-05                   1_GWF-(1,30,27)

 3 CALLS TO NUMERICAL SOLUTION IN TIME STEP 10 STRESS PERIOD 7
 7 TOTAL ITERATIONS
1
                            STRESS PERIOD NO.    8, LENGTH =   30.00000    
                            -----------------------------------------------

                              NUMBER OF TIME STEPS =    10

                               MULTIPLIER FOR DELT =     1.000

                            INITIAL TIME STEP SIZE =   3.000000    


 OUTER ITERATION SUMMARY
 ---------------------------------------------------------------------------------------
                       OUTER     INNER         MAXIMUM                    MAXIMUM CHANGE
                   ITERATION ITERATION          CHANGE                    MODEL-(CELLID)
 ---------------------------------------------------------------------------------------
 Linear Solver             1         6   -0.157251                        1_GWF-(1,1,29)
 Under-relaxation          1             -0.157251                        1_GWF-(1,1,29)
 Linear Solver             2         4    5.425358E-03                   1_GWF-(1,29,27)
 Under-relaxation          2              5.425358E-03                   1_GWF-(1,29,27)
 Linear Solver             3         2    1.635555E-04                   1_GWF-(1,30,29)
 Under-relaxation          3              1.635555E-04                   1_GWF-(1,30,29)
 Linear Solver             4         1   -1.733087E-05                    1_GWF-(1,4,27)

 4 CALLS TO NUMERICAL SOLUTION IN TIME STEP 1 STRESS PERIOD 8
 13 TOTAL ITERATIONS


 OUTER ITERATION SUMMARY
 ---------------------------------------------------------------------------------------
                       OUTER     INNER         MAXIMUM                    MAXIMUM CHANGE
                   ITERATION ITERATION          CHANGE                    MODEL-(CELLID)
 ---------------------------------------------------------------------------------------
 Linear Solver             1         5   -5.005083E-02                   1_GWF-(1,10,28)
 Under-relaxation          1             -5.005083E-02                   1_GWF-(1,10,28)
 Linear Solver             2         3    1.541075E-03                    1_GWF-(1,3,26)
 Under-relaxation          2              1.541075E-03                    1_GWF-(1,3,26)
 Linear Solver             3         1    9.343574E-05                    1_GWF-(1,2,28)

 3 CALLS TO NUMERICAL SOLUTION IN TIME STEP 2 STRESS PERIOD 8
 9 TOTAL ITERATIONS


 OUTER ITERATION SUMMARY
 ---------------------------------------------------------------------------------------
                       OUTER     INNER         MAXIMUM                    MAXIMUM CHANGE
                   ITERATION ITERATION          CHANGE                    MODEL-(CELLID)
 ---------------------------------------------------------------------------------------
 Linear Solver             1         5   -3.090787E-02                    1_GWF-(1,1,27)
 Under-relaxation          1             -3.090787E-02                    1_GWF-(1,1,27)
 Linear Solver             2         3   -7.332208E-04                   1_GWF-(1,30,29)
 Under-relaxation          2             -7.332208E-04                   1_GWF-(1,30,29)
 Linear Solver             3         1    5.356420E-05                   1_GWF-(1,30,28)

 3 CALLS TO NUMERICAL SOLUTION IN TIME STEP 3 STRESS PERIOD 8
 9 TOTAL ITERATIONS


 OUTER ITERATION SUMMARY
 ---------------------------------------------------------------------------------------
                       OUTER     INNER         MAXIMUM                    MAXIMUM CHANGE
                   ITERATION ITERATION          CHANGE                    MODEL-(CELLID)
 ---------------------------------------------------------------------------------------
 Linear Solver             1         5   -2.355335E-02                    1_GWF-(1,1,26)
 Under-relaxation          1             -2.355335E-02                    1_GWF-(1,1,26)
 Linear Solver             2         3   -5.601770E-04                    1_GWF-(1,1,29)
 Under-relaxation          2             -5.601770E-04                    1_GWF-(1,1,29)
 Linear Solver             3         1    3.830924E-05                    1_GWF-(1,2,27)

 3 CALLS TO NUMERICAL SOLUTION IN TIME STEP 4 STRESS PERIOD 8
 9 TOTAL ITERATIONS


 OUTER ITERATION SUMMARY
 ---------------------------------------------------------------------------------------
                       OUTER     INNER         MAXIMUM                    MAXIMUM CHANGE
                   ITERATION ITERATION          CHANGE                    MODEL-(CELLID)
 ---------------------------------------------------------------------------------------
 Linear Solver             1         4   -1.967710E-02                    1_GWF-(1,1,25)
 Under-relaxation          1             -1.967710E-02                    1_GWF-(1,1,25)
 Linear Solver             2         3   -4.484192E-04                   1_GWF-(1,30,29)
 Under-relaxation          2             -4.484192E-04                   1_GWF-(1,30,29)
 Linear Solver             3         1    2.783487E-05                   1_GWF-(1,30,27)

 3 CALLS TO NUMERICAL SOLUTION IN TIME STEP 5 STRESS PERIOD 8
 8 TOTAL ITERATIONS


 OUTER ITERATION SUMMARY
 ---------------------------------------------------------------------------------------
                       OUTER     INNER         MAXIMUM                    MAXIMUM CHANGE
                   ITERATION ITERATION          CHANGE                    MODEL-(CELLID)
 ---------------------------------------------------------------------------------------
 Linear Solver             1         4   -1.722849E-02                    1_GWF-(1,5,24)
 Under-relaxation          1             -1.722849E-02                    1_GWF-(1,5,24)
 Linear Solver             2         2   -3.736638E-04                   1_GWF-(1,30,29)
 Under-relaxation          2             -3.736638E-04                   1_GWF-(1,30,29)
 Linear Solver             3         1    3.218109E-05                   1_GWF-(1,30,27)

 3 CALLS TO NUMERICAL SOLUTION IN TIME STEP 6 STRESS PERIOD 8
 7 TOTAL ITERATIONS


 OUTER ITERATION SUMMARY
 ---------------------------------------------------------------------------------------
                       OUTER     INNER         MAXIMUM                    MAXIMUM CHANGE
                   ITERATION ITERATION          CHANGE                    MODEL-(CELLID)
 ---------------------------------------------------------------------------------------
 Linear Solver             1         4   -1.550694E-02                    1_GWF-(1,4,23)
 Under-relaxation          1             -1.550694E-02                    1_GWF-(1,4,23)
 Linear Solver             2         2   -3.253653E-04                   1_GWF-(1,30,28)
 Under-relaxation          2             -3.253653E-04                   1_GWF-(1,30,28)
 Linear Solver             3         1    2.655003E-05                   1_GWF-(1,30,27)

 3 CALLS TO NUMERICAL SOLUTION IN TIME STEP 7 STRESS PERIOD 8
 7 TOTAL ITERATIONS


 OUTER ITERATION SUMMARY
 ---------------------------------------------------------------------------------------
                       OUTER     INNER         MAXIMUM                    MAXIMUM CHANGE
                   ITERATION ITERATION          CHANGE                    MODEL-(CELLID)
 ---------------------------------------------------------------------------------------
 Linear Solver             1         4   -1.420664E-02                    1_GWF-(1,3,22)
 Under-relaxation          1             -1.420664E-02                    1_GWF-(1,3,22)
 Linear Solver             2         2   -2.902884E-04                   1_GWF-(1,30,28)
 Under-relaxation          2             -2.902884E-04                   1_GWF-(1,30,28)
 Linear Solver             3         1    2.232627E-05                   1_GWF-(1,30,27)

 3 CALLS TO NUMERICAL SOLUTION IN TIME STEP 8 STRESS PERIOD 8
 7 TOTAL ITERATIONS


 OUTER ITERATION SUMMARY
 ---------------------------------------------------------------------------------------
                       OUTER     INNER         MAXIMUM                    MAXIMUM CHANGE
                   ITERATION ITERATION          CHANGE                    MODEL-(CELLID)
 ---------------------------------------------------------------------------------------
 Linear Solver             1         4   -1.317957E-02                   1_GWF-(1,29,21)
 Under-relaxation          1             -1.317957E-02                   1_GWF-(1,29,21)
 Linear Solver             2         2   -2.614032E-04                   1_GWF-(1,30,28)
 Under-relaxation          2             -2.614032E-04                   1_GWF-(1,30,28)
 Linear Solver             3         1    1.914470E-05                   1_GWF-(1,30,27)

 3 CALLS TO NUMERICAL SOLUTION IN TIME STEP 9 STRESS PERIOD 8
 7 TOTAL ITERATIONS


 OUTER ITERATION SUMMARY
 ---------------------------------------------------------------------------------------
                       OUTER     INNER         MAXIMUM                    MAXIMUM CHANGE
                   ITERATION ITERATION          CHANGE                    MODEL-(CELLID)
 ---------------------------------------------------------------------------------------
 Linear Solver             1         4   -1.234590E-02                   1_GWF-(1,29,20)
 Under-relaxation          1             -1.234590E-02                   1_GWF-(1,29,20)
 Linear Solver             2         2   -2.375177E-04                   1_GWF-(1,30,28)
 Under-relaxation          2             -2.375177E-04                   1_GWF-(1,30,28)
 Linear Solver             3         1    1.669817E-05                   1_GWF-(1,30,27)

 3 CALLS TO NUMERICAL SOLUTION IN TIME STEP 10 STRESS PERIOD 8
 7 TOTAL ITERATIONS
1
                            STRESS PERIOD NO.    9, LENGTH =   30.00000    
                            -----------------------------------------------

                              NUMBER OF TIME STEPS =    10

                               MULTIPLIER FOR DELT =     1.000

                            INITIAL TIME STEP SIZE =   3.000000    


 OUTER ITERATION SUMMARY
 ---------------------------------------------------------------------------------------
                       OUTER     INNER         MAXIMUM                    MAXIMUM CHANGE
                   ITERATION ITERATION          CHANGE                    MODEL-(CELLID)
 ---------------------------------------------------------------------------------------
 Linear Solver             1         5   -0.127363                       1_GWF-(1,29,29)
 Under-relaxation          1             -0.127363                       1_GWF-(1,29,29)
 Linear Solver             2         4    5.089554E-03                   1_GWF-(1,29,28)
 Under-relaxation          2              5.089554E-03                   1_GWF-(1,29,28)
 Linear Solver             3         2    1.726213E-04                   1_GWF-(1,30,29)
 Under-relaxation          3              1.726213E-04                   1_GWF-(1,30,29)
 Linear Solver             4         1   -1.903948E-05                    1_GWF-(1,4,27)

 4 CALLS TO NUMERICAL SOLUTION IN TIME STEP 1 STRESS PERIOD 9
 12 TOTAL ITERATIONS


 OUTER ITERATION SUMMARY
 ---------------------------------------------------------------------------------------
                       OUTER     INNER         MAXIMUM                    MAXIMUM CHANGE
                   ITERATION ITERATION          CHANGE                    MODEL-(CELLID)
 ---------------------------------------------------------------------------------------
[...]
 Under-relaxation          2             -2.978622E-04                   1_GWF-(1,30,29)
 Linear Solver             3         1    3.210158E-05                   1_GWF-(1,30,28)

 3 CALLS TO NUMERICAL SOLUTION IN TIME STEP 9 STRESS PERIOD 58
 7 TOTAL ITERATIONS


 OUTER ITERATION SUMMARY
 ---------------------------------------------------------------------------------------
                       OUTER     INNER         MAXIMUM                    MAXIMUM CHANGE
                   ITERATION ITERATION          CHANGE                    MODEL-(CELLID)
 ---------------------------------------------------------------------------------------
 Linear Solver             1         4    6.587056E-03                    1_GWF-(1,24,1)
 Under-relaxation          1              6.587056E-03                    1_GWF-(1,24,1)
 Linear Solver             2         2   -2.386134E-04                   1_GWF-(1,30,29)
 Under-relaxation          2             -2.386134E-04                   1_GWF-(1,30,29)
 Linear Solver             3         1    2.524644E-05                   1_GWF-(1,30,28)

 3 CALLS TO NUMERICAL SOLUTION IN TIME STEP 10 STRESS PERIOD 58
 7 TOTAL ITERATIONS
1
                            STRESS PERIOD NO.   59, LENGTH =   30.00000    
                            -----------------------------------------------

                              NUMBER OF TIME STEPS =    10

                               MULTIPLIER FOR DELT =     1.000

                            INITIAL TIME STEP SIZE =   3.000000    


 OUTER ITERATION SUMMARY
 ---------------------------------------------------------------------------------------
                       OUTER     INNER         MAXIMUM                    MAXIMUM CHANGE
                   ITERATION ITERATION          CHANGE                    MODEL-(CELLID)
 ---------------------------------------------------------------------------------------
 Linear Solver             1         5   -3.334612E-02                   1_GWF-(1,29,29)
 Under-relaxation          1             -3.334612E-02                   1_GWF-(1,29,29)
 Linear Solver             2         3    1.941389E-03                    1_GWF-(1,3,28)
 Under-relaxation          2              1.941389E-03                    1_GWF-(1,3,28)
 Linear Solver             3         2    1.127985E-04                    1_GWF-(1,1,29)
 Under-relaxation          3              1.127985E-04                    1_GWF-(1,1,29)
 Linear Solver             4         1   -1.448051E-05                    1_GWF-(1,3,27)

 4 CALLS TO NUMERICAL SOLUTION IN TIME STEP 1 STRESS PERIOD 59
 11 TOTAL ITERATIONS


 OUTER ITERATION SUMMARY
 ---------------------------------------------------------------------------------------
                       OUTER     INNER         MAXIMUM                    MAXIMUM CHANGE
                   ITERATION ITERATION          CHANGE                    MODEL-(CELLID)
 ---------------------------------------------------------------------------------------
 Linear Solver             1         4   -1.098884E-02                   1_GWF-(1,29,29)
 Under-relaxation          1             -1.098884E-02                   1_GWF-(1,29,29)
 Linear Solver             2         3    6.430803E-04                    1_GWF-(1,1,27)
 Under-relaxation          2              6.430803E-04                    1_GWF-(1,1,27)
 Linear Solver             3         1    6.001497E-05                    1_GWF-(1,2,28)

 3 CALLS TO NUMERICAL SOLUTION IN TIME STEP 2 STRESS PERIOD 59
 8 TOTAL ITERATIONS


 OUTER ITERATION SUMMARY
 ---------------------------------------------------------------------------------------
                       OUTER     INNER         MAXIMUM                    MAXIMUM CHANGE
                   ITERATION ITERATION          CHANGE                    MODEL-(CELLID)
 ---------------------------------------------------------------------------------------
 Linear Solver             1         4    9.752639E-03                    1_GWF-(1,24,1)
 Under-relaxation          1              9.752639E-03                    1_GWF-(1,24,1)
 Linear Solver             2         2    3.231877E-04                    1_GWF-(1,1,26)
 Under-relaxation          2              3.231877E-04                    1_GWF-(1,1,26)
 Linear Solver             3         1    3.916181E-05                    1_GWF-(1,4,28)

 3 CALLS TO NUMERICAL SOLUTION IN TIME STEP 3 STRESS PERIOD 59
 7 TOTAL ITERATIONS


 OUTER ITERATION SUMMARY
 ---------------------------------------------------------------------------------------
                       OUTER     INNER         MAXIMUM                    MAXIMUM CHANGE
                   ITERATION ITERATION          CHANGE                    MODEL-(CELLID)
 ---------------------------------------------------------------------------------------
 Linear Solver             1         4    9.443250E-03                    1_GWF-(1,24,1)
 Under-relaxation          1              9.443250E-03                    1_GWF-(1,24,1)
 Linear Solver             2         2    2.031837E-04                   1_GWF-(1,30,25)
 Under-relaxation          2              2.031837E-04                   1_GWF-(1,30,25)
 Linear Solver             3         1    2.405766E-05                    1_GWF-(1,5,28)

 3 CALLS TO NUMERICAL SOLUTION IN TIME STEP 4 STRESS PERIOD 59
 7 TOTAL ITERATIONS


 OUTER ITERATION SUMMARY
 ---------------------------------------------------------------------------------------
                       OUTER     INNER         MAXIMUM                    MAXIMUM CHANGE
                   ITERATION ITERATION          CHANGE                    MODEL-(CELLID)
 ---------------------------------------------------------------------------------------
 Linear Solver             1         4    9.142338E-03                    1_GWF-(1,24,1)
 Under-relaxation          1              9.142338E-03                    1_GWF-(1,24,1)
 Linear Solver             2         2    1.418072E-04                   1_GWF-(1,30,24)
 Under-relaxation          2              1.418072E-04                   1_GWF-(1,30,24)
 Linear Solver             3         1    1.553397E-05                   1_GWF-(1,30,28)

 3 CALLS TO NUMERICAL SOLUTION IN TIME STEP 5 STRESS PERIOD 59
 7 TOTAL ITERATIONS


 OUTER ITERATION SUMMARY
 ---------------------------------------------------------------------------------------
                       OUTER     INNER         MAXIMUM                    MAXIMUM CHANGE
                   ITERATION ITERATION          CHANGE                    MODEL-(CELLID)
 ---------------------------------------------------------------------------------------
 Linear Solver             1         4    8.851692E-03                    1_GWF-(1,25,1)
 Under-relaxation          1              8.851692E-03                    1_GWF-(1,25,1)
 Linear Solver             2         2    1.057216E-04                   1_GWF-(1,30,24)
 Under-relaxation          2              1.057216E-04                   1_GWF-(1,30,24)
 Linear Solver             3         1    1.017012E-05                   1_GWF-(1,30,28)

 3 CALLS TO NUMERICAL SOLUTION IN TIME STEP 6 STRESS PERIOD 59
 7 TOTAL ITERATIONS


 OUTER ITERATION SUMMARY
 ---------------------------------------------------------------------------------------
                       OUTER     INNER         MAXIMUM                    MAXIMUM CHANGE
                   ITERATION ITERATION          CHANGE                    MODEL-(CELLID)
 ---------------------------------------------------------------------------------------
 Linear Solver             1         4    8.571986E-03                    1_GWF-(1,25,1)
 Under-relaxation          1              8.571986E-03                    1_GWF-(1,25,1)
 Linear Solver             2         1    8.077822E-05                   1_GWF-(1,29,24)

 2 CALLS TO NUMERICAL SOLUTION IN TIME STEP 7 STRESS PERIOD 59
 5 TOTAL ITERATIONS


 OUTER ITERATION SUMMARY
 ---------------------------------------------------------------------------------------
                       OUTER     INNER         MAXIMUM                    MAXIMUM CHANGE
                   ITERATION ITERATION          CHANGE                    MODEL-(CELLID)
 ---------------------------------------------------------------------------------------
 Linear Solver             1         3    8.319367E-03                    1_GWF-(1,30,1)
 Under-relaxation          1              8.319367E-03                    1_GWF-(1,30,1)
 Linear Solver             2         1   -9.535341E-05                    1_GWF-(1,30,1)

 2 CALLS TO NUMERICAL SOLUTION IN TIME STEP 8 STRESS PERIOD 59
 4 TOTAL ITERATIONS


 OUTER ITERATION SUMMARY
 ---------------------------------------------------------------------------------------
                       OUTER     INNER         MAXIMUM                    MAXIMUM CHANGE
                   ITERATION ITERATION          CHANGE                    MODEL-(CELLID)
 ---------------------------------------------------------------------------------------
 Linear Solver             1         3    8.078716E-03                    1_GWF-(1,30,1)
 Under-relaxation          1              8.078716E-03                    1_GWF-(1,30,1)
 Linear Solver             2         1   -9.480114E-05                    1_GWF-(1,30,1)

 2 CALLS TO NUMERICAL SOLUTION IN TIME STEP 9 STRESS PERIOD 59
 4 TOTAL ITERATIONS


 OUTER ITERATION SUMMARY
 ---------------------------------------------------------------------------------------
                       OUTER     INNER         MAXIMUM                    MAXIMUM CHANGE
                   ITERATION ITERATION          CHANGE                    MODEL-(CELLID)
 ---------------------------------------------------------------------------------------
 Linear Solver             1         3    7.836821E-03                    1_GWF-(1,30,1)
 Under-relaxation          1              7.836821E-03                    1_GWF-(1,30,1)
 Linear Solver             2         1   -9.047057E-05                    1_GWF-(1,30,1)

 2 CALLS TO NUMERICAL SOLUTION IN TIME STEP 10 STRESS PERIOD 59
 4 TOTAL ITERATIONS
1
                            STRESS PERIOD NO.   60, LENGTH =   30.00000    
                            -----------------------------------------------

                              NUMBER OF TIME STEPS =    10

                               MULTIPLIER FOR DELT =     1.000

                            INITIAL TIME STEP SIZE =   3.000000    


 OUTER ITERATION SUMMARY
 ---------------------------------------------------------------------------------------
                       OUTER     INNER         MAXIMUM                    MAXIMUM CHANGE
                   ITERATION ITERATION          CHANGE                    MODEL-(CELLID)
 ---------------------------------------------------------------------------------------
 Linear Solver             1         5   -5.582021E-02                   1_GWF-(1,29,29)
 Under-relaxation          1             -5.582021E-02                   1_GWF-(1,29,29)
 Linear Solver             2         4    3.878430E-03                   1_GWF-(1,29,28)
 Under-relaxation          2              3.878430E-03                   1_GWF-(1,29,28)
 Linear Solver             3         2    2.412645E-04                    1_GWF-(1,6,29)
 Under-relaxation          3              2.412645E-04                    1_GWF-(1,6,29)
 Linear Solver             4         1   -3.107877E-05                    1_GWF-(1,3,27)

 4 CALLS TO NUMERICAL SOLUTION IN TIME STEP 1 STRESS PERIOD 60
 12 TOTAL ITERATIONS


 OUTER ITERATION SUMMARY
 ---------------------------------------------------------------------------------------
                       OUTER     INNER         MAXIMUM                    MAXIMUM CHANGE
                   ITERATION ITERATION          CHANGE                    MODEL-(CELLID)
 ---------------------------------------------------------------------------------------
 Linear Solver             1         5   -1.792049E-02                   1_GWF-(1,28,29)
 Under-relaxation          1             -1.792049E-02                   1_GWF-(1,28,29)
 Linear Solver             2         3    1.310780E-03                    1_GWF-(1,3,27)
 Under-relaxation          2              1.310780E-03                    1_GWF-(1,3,27)
 Linear Solver             3         2    1.071912E-04                   1_GWF-(1,26,28)
 Under-relaxation          3              1.071912E-04                   1_GWF-(1,26,28)
 Linear Solver             4         1   -1.139667E-05                    1_GWF-(1,4,27)

 4 CALLS TO NUMERICAL SOLUTION IN TIME STEP 2 STRESS PERIOD 60
 11 TOTAL ITERATIONS


 OUTER ITERATION SUMMARY
 ---------------------------------------------------------------------------------------
                       OUTER     INNER         MAXIMUM                    MAXIMUM CHANGE
                   ITERATION ITERATION          CHANGE                    MODEL-(CELLID)
 ---------------------------------------------------------------------------------------
 Linear Solver             1         4    1.118654E-02                     1_GWF-(1,2,1)
 Under-relaxation          1              1.118654E-02                     1_GWF-(1,2,1)
 Linear Solver             2         3    5.929922E-04                    1_GWF-(1,1,26)
 Under-relaxation          2              5.929922E-04                    1_GWF-(1,1,26)
 Linear Solver             3         1    6.122425E-05                    1_GWF-(1,2,28)

 3 CALLS TO NUMERICAL SOLUTION IN TIME STEP 3 STRESS PERIOD 60
 8 TOTAL ITERATIONS


 OUTER ITERATION SUMMARY
 ---------------------------------------------------------------------------------------
                       OUTER     INNER         MAXIMUM                    MAXIMUM CHANGE
                   ITERATION ITERATION          CHANGE                    MODEL-(CELLID)
 ---------------------------------------------------------------------------------------
 Linear Solver             1         4    1.095272E-02                     1_GWF-(1,2,1)
 Under-relaxation          1              1.095272E-02                     1_GWF-(1,2,1)
 Linear Solver             2         2    3.361125E-04                    1_GWF-(1,1,26)
 Under-relaxation          2              3.361125E-04                    1_GWF-(1,1,26)
 Linear Solver             3         1    3.647837E-05                    1_GWF-(1,4,28)

 3 CALLS TO NUMERICAL SOLUTION IN TIME STEP 4 STRESS PERIOD 60
 7 TOTAL ITERATIONS


 OUTER ITERATION SUMMARY
 ---------------------------------------------------------------------------------------
                       OUTER     INNER         MAXIMUM                    MAXIMUM CHANGE
                   ITERATION ITERATION          CHANGE                    MODEL-(CELLID)
 ---------------------------------------------------------------------------------------
 Linear Solver             1         4    1.072441E-02                    1_GWF-(1,24,1)
 Under-relaxation          1              1.072441E-02                    1_GWF-(1,24,1)
 Linear Solver             2         2    2.090078E-04                    1_GWF-(1,1,26)
 Under-relaxation          2              2.090078E-04                    1_GWF-(1,1,26)
 Linear Solver             3         1    1.956409E-05                    1_GWF-(1,4,28)

 3 CALLS TO NUMERICAL SOLUTION IN TIME STEP 5 STRESS PERIOD 60
 7 TOTAL ITERATIONS


 OUTER ITERATION SUMMARY
 ---------------------------------------------------------------------------------------
                       OUTER     INNER         MAXIMUM                    MAXIMUM CHANGE
                   ITERATION ITERATION          CHANGE                    MODEL-(CELLID)
 ---------------------------------------------------------------------------------------
 Linear Solver             1         4    1.049967E-02                    1_GWF-(1,25,1)
 Under-relaxation          1              1.049967E-02                    1_GWF-(1,25,1)
 Linear Solver             2         2    1.421155E-04                   1_GWF-(1,30,26)
 Under-relaxation          2              1.421155E-04                   1_GWF-(1,30,26)
 Linear Solver             3         1    9.623670E-06                    1_GWF-(1,4,28)

 3 CALLS TO NUMERICAL SOLUTION IN TIME STEP 6 STRESS PERIOD 60
 7 TOTAL ITERATIONS


 OUTER ITERATION SUMMARY
 ---------------------------------------------------------------------------------------
                       OUTER     INNER         MAXIMUM                    MAXIMUM CHANGE
                   ITERATION ITERATION          CHANGE                    MODEL-(CELLID)
 ---------------------------------------------------------------------------------------
 Linear Solver             1         4    1.027778E-02                    1_GWF-(1,25,1)
 Under-relaxation          1              1.027778E-02                    1_GWF-(1,25,1)
 Linear Solver             2         2    1.051557E-04                   1_GWF-(1,30,26)
 Under-relaxation          2              1.051557E-04                   1_GWF-(1,30,26)
 Linear Solver             3         1    5.029196E-06                    1_GWF-(1,5,29)

 3 CALLS TO NUMERICAL SOLUTION IN TIME STEP 7 STRESS PERIOD 60
 7 TOTAL ITERATIONS


 OUTER ITERATION SUMMARY
 ---------------------------------------------------------------------------------------
                       OUTER     INNER         MAXIMUM                    MAXIMUM CHANGE
                   ITERATION ITERATION          CHANGE                    MODEL-(CELLID)
 ---------------------------------------------------------------------------------------
 Linear Solver             1         4    1.005862E-02                    1_GWF-(1,25,1)
 Under-relaxation          1              1.005862E-02                    1_GWF-(1,25,1)
 Linear Solver             2         1    9.064146E-05                    1_GWF-(1,2,27)

 2 CALLS TO NUMERICAL SOLUTION IN TIME STEP 8 STRESS PERIOD 60
 5 TOTAL ITERATIONS


 OUTER ITERATION SUMMARY
 ---------------------------------------------------------------------------------------
                       OUTER     INNER         MAXIMUM                    MAXIMUM CHANGE
                   ITERATION ITERATION          CHANGE                    MODEL-(CELLID)
 ---------------------------------------------------------------------------------------
 Linear Solver             1         4    9.843385E-03                    1_GWF-(1,25,1)
 Under-relaxation          1              9.843385E-03                    1_GWF-(1,25,1)
 Linear Solver             2         1    9.927615E-05                    1_GWF-(1,3,29)

 2 CALLS TO NUMERICAL SOLUTION IN TIME STEP 9 STRESS PERIOD 60
 5 TOTAL ITERATIONS


 OUTER ITERATION SUMMARY
 ---------------------------------------------------------------------------------------
                       OUTER     INNER         MAXIMUM                    MAXIMUM CHANGE
                   ITERATION ITERATION          CHANGE                    MODEL-(CELLID)
 ---------------------------------------------------------------------------------------
 Linear Solver             1         4    9.630334E-03                    1_GWF-(1,25,1)
 Under-relaxation          1              9.630334E-03                    1_GWF-(1,25,1)
 Linear Solver             2         2    1.034372E-04                   1_GWF-(1,30,29)
 Under-relaxation          2              1.034372E-04                   1_GWF-(1,30,29)
 Linear Solver             3         1   -7.816182E-06                   1_GWF-(1,30,27)

 3 CALLS TO NUMERICAL SOLUTION IN TIME STEP 10 STRESS PERIOD 60
 7 TOTAL ITERATIONS

 INFORMATION ON VARIABLES STORED IN THE MEMORY MANAGER
 
 Number of allocated integer variables:   39809
 Number of allocated real variables:    45156
 Allocated memory in megabytes:    0.520484    
 

 Run end date and time (yyyy/mm/dd hh:mm:ss): 2020/05/13 18:20:59
 Elapsed run time:  4.963 Seconds

 Normal termination of simulation.
