                                   MODFLOW 6
                U.S. GEOLOGICAL SURVEY MODULAR HYDROLOGIC MODEL
                          GROUNDWATER FLOW MODEL (GWF)
                            VERSION 6.0.4 03/13/2019

   MODFLOW 6 compiled Mar 21 2019 15:37:31 with IFORT compiler (ver. 19.0.0)

This software has been approved for release by the U.S. Geological 
Survey (USGS). Although the software has been subjected to rigorous 
review, the USGS reserves the right to update the software as needed 
pursuant to further analysis and review. No warranty, expressed or 
implied, is made by the USGS or the U.S. Government as to the 
functionality of the software and related material nor shall the 
fact of release constitute any such warranty. Furthermore, the 
software is released on condition that neither the USGS nor the U.S. 
Government shall be held liable for any damages resulting from its 
authorized or unauthorized use. Also refer to the USGS Water 
Resources Software User Rights Notice for complete use, copyright, 
and distribution information.


MODFLOW was compiled using uniform precision.
Precision of REAL variables: 15


 OPENED test_trans.dis
 FILE TYPE:DIS6                   UNIT 1005   STATUS:OLD                 
 FORMAT:FORMATTED              ACCESS:SEQUENTIAL          
 ACTION:READ                


 OPENED test_trans.ic
 FILE TYPE:IC6                    UNIT 1006   STATUS:OLD                 
 FORMAT:FORMATTED              ACCESS:SEQUENTIAL          
 ACTION:READ                


 OPENED test_trans.npf
 FILE TYPE:NPF6                   UNIT 1007   STATUS:OLD                 
 FORMAT:FORMATTED              ACCESS:SEQUENTIAL          
 ACTION:READ                


 OPENED test_trans.oc
 FILE TYPE:OC6                    UNIT 1008   STATUS:OLD                 
 FORMAT:FORMATTED              ACCESS:SEQUENTIAL          
 ACTION:READ                


 OPENED test_trans.sto
 FILE TYPE:STO6                   UNIT 1009   STATUS:OLD                 
 FORMAT:FORMATTED              ACCESS:SEQUENTIAL          
 ACTION:READ                


 OPENED test_trans.rcha
 FILE TYPE:RCH6                   UNIT 1010   STATUS:OLD                 
 FORMAT:FORMATTED              ACCESS:SEQUENTIAL          
 ACTION:READ                


 OPENED test_trans.chd
 FILE TYPE:CHD6                   UNIT 1011   STATUS:OLD                 
 FORMAT:FORMATTED              ACCESS:SEQUENTIAL          
 ACTION:READ                


 OPENED test_trans.obs
 FILE TYPE:OBS6                   UNIT 1012   STATUS:OLD                 
 FORMAT:FORMATTED              ACCESS:SEQUENTIAL          
 ACTION:READ                

 NAMEFILE OPTIONS:
    FLOWS WILL BE SAVED TO BUDGET FILE SPECIFIED IN OUTPUT CONTROL

 DIS -- STRUCTURED GRID DISCRETIZATION PACKAGE, VERSION 2 : 3/27/2014 - INPUT READ FROM UNIT 1005


 PROCESSING DISCRETIZATION OPTIONS
 END OF DISCRETIZATION OPTIONS
 MODEL LENGTH UNIT IS UNDEFINED
 PROCESSING DISCRETIZATION DIMENSIONS
    NLAY =       1
    NROW =      30
    NCOL =      30
 END OF DISCRETIZATION DIMENSIONS
 PROCESSING GRIDDATA

                     DELR =   10.00000    

                     DELC =   10.00000    

 TOP ELEVATION OF LAYER 1 =   30.00000    

   MODEL LAYER BOTTOM EL. =   23.00000    

                  IDOMAIN = 1
 END PROCESSING GRIDDATA

 NPF -- NODE PROPERTY FLOW PACKAGE, VERSION 1, 3/30/2015 INPUT READ FROM UNIT 1007


 PROCESSING NPF OPTIONS
    CELL-BY-CELL FLOW INFORMATION WILL BE SAVED TO BINARY FILE WHENEVER ICBCFL IS NOT ZERO.
 END OF NPF OPTIONS

 RCH   -- RCH PACKAGE, VERSION 8, 2/22/2014 INPUT READ FROM UNIT 1010

 PROCESSING RCH OPTIONS
    RECHARGE INPUT WILL BE READ AS ARRAY(S).
 END OF RCH OPTIONS

 CHD   -- CHD PACKAGE, VERSION 8, 2/22/2014 INPUT READ FROM UNIT 1011

 PROCESSING CHD OPTIONS
 END OF CHD OPTIONS

 PROCESSING CHD DIMENSIONS
    MAXBOUND =      30
 END OF CHD DIMENSIONS

 IC -- INITIAL CONDITIONS PACKAGE, VERSION 8, 3/28/2015 INPUT READ FROM UNIT 1006
 PROCESSING GRIDDATA

     INITIAL HEAD =   25.00000    
 END PROCESSING GRIDDATA
 PROCESSING GRIDDATA

                ICELLTYPE = 1

                        K =   8.640000    
 K33 not provided.  Assuming K33 = K.
 K22 not provided.  Assuming K22 = K.
 END PROCESSING GRIDDATA

 STO -- STORAGE PACKAGE, VERSION 1, 5/19/2014 INPUT READ FROM UNIT 1009


 PROCESSING STORAGE OPTIONS
    CELL-BY-CELL FLOW INFORMATION WILL BE SAVED TO BINARY FILE WHENEVER ICBCFL IS NOT ZERO.
 END OF STORAGE OPTIONS
 PROCESSING GRIDDATA

                 ICONVERT = 1

         SPECIFIC STORAGE =  0.1000000E-04

           SPECIFIC YIELD =  0.2000000    
 END PROCESSING GRIDDATA

The observation utility is active for "TEST_TRANS"

Processing observation options:

Text output number of digits of precision set to: 10
The PRINT_INPUT option has been specified.


Observations read from file "test_trans.obs":
Name                                      Type                             Time         Location data
----------------------------------------  -------------------------------  -----------  --------------------------
COL 5                                     Continuous HEAD                  All times    "1 16 6"
COL 10                                    Continuous HEAD                  All times    "1 16 11"
COL 20                                    Continuous HEAD                  All times    "1 16 21"
    BINARY GRID INFORMATION WILL BE WRITTEN TO:
      UNIT NUMBER: 1015
      FILE NAME: M:\GitHub\TM_Ludovic_Schorpp\codes_tests\notebooks_essais\transitoire\workspace\test_trans.dis.grb

 OPENED M:\GitHub\TM_Ludovic_Schorpp\codes_tests\notebooks_essais\transitoire\workspace\test_trans.dis.grb
 FILE TYPE:DATA(BINARY)   UNIT 1015   STATUS:REPLACE             
 FORMAT:UNFORMATTED            ACCESS:STREAM              
 ACTION:READWRITE           

      THE LAST TIME STEP WILL BE PRINTED
      THE LAST TIME STEP WILL BE PRINTED
 PROCESSING OC OPTIONS
    BUDGET INFORMATION WILL BE WRITTEN TO:
      UNIT NUMBER: 1016
      FILE NAME: test_trans.cbb

 OPENED test_trans.cbb
 FILE TYPE:DATA(BINARY)   UNIT 1016   STATUS:REPLACE             
 FORMAT:UNFORMATTED            ACCESS:STREAM              
 ACTION:READWRITE           

    HEAD INFORMATION WILL BE WRITTEN TO:
      UNIT NUMBER: 1017
      FILE NAME: test_trans.hds

 OPENED test_trans.hds
 FILE TYPE:DATA(BINARY)   UNIT 1017   STATUS:REPLACE             
 FORMAT:UNFORMATTED            ACCESS:STREAM              
 ACTION:READWRITE           

 END OF OC OPTIONS

 BEGIN READING OUTPUT CONTROL FOR STRESS PERIOD 1
      ALL TIME STEPS WILL BE SAVED
      ALL TIME STEPS WILL BE SAVED
      ALL TIME STEPS WILL BE PRINTED

 END READING OUTPUT CONTROL FOR STRESS PERIOD 1


 UPDATING STORAGE VALUES
 END UPDATING STORAGE VALUES


 STRESS PERIOD 1 IS STEADY-STATE


                 RECHARGE =  0.2739730E-02
 UBDSV1 SAVING           STO-SS ON UNIT   1016 AT TIME STEP      1, STRESS PERIOD      1
 UBDSV1 SAVING           STO-SY ON UNIT   1016 AT TIME STEP      1, STRESS PERIOD      1
 UBDSV1 SAVING     FLOW-JA-FACE ON UNIT   1016 AT TIME STEP      1, STRESS PERIOD      1
 UBDSV06 SAVING              RCH IN MODEL TEST_TRANS       PACKAGE TEST_TRANS      CONNECTED TO MODEL TEST_TRANS       PACKAGE RCHA             ON UNIT   1016 AT TIME STEP      1, STRESS PERIOD      1
 UBDSV06 SAVING              CHD IN MODEL TEST_TRANS       PACKAGE TEST_TRANS      CONNECTED TO MODEL TEST_TRANS       PACKAGE CHD              ON UNIT   1016 AT TIME STEP      1, STRESS PERIOD      1

 HEAD WILL BE SAVED ON UNIT 1017 AT END OF TIME STEP    1, STRESS PERIOD    1


  VOLUME BUDGET FOR ENTIRE MODEL AT END OF TIME STEP    1, STRESS PERIOD   1
  ---------------------------------------------------------------------------------------------------

     CUMULATIVE VOLUME      L**3       RATES FOR THIS TIME STEP      L**3/T          PACKAGE NAME    
     ------------------                 ------------------------                     ----------------

           IN:                                      IN:
           ---                                      ---
              STO-SS =           0.0000                STO-SS =           0.0000     STORAGE         
              STO-SY =           0.0000                STO-SY =           0.0000     STORAGE         
                 RCH =         238.3565                   RCH =         238.3565     RCHA            
                 CHD =           0.0000                   CHD =           0.0000     CHD             

            TOTAL IN =         238.3565              TOTAL IN =         238.3565

          OUT:                                     OUT:
          ----                                     ----
              STO-SS =           0.0000                STO-SS =           0.0000     STORAGE         
              STO-SY =           0.0000                STO-SY =           0.0000     STORAGE         
                 RCH =           0.0000                   RCH =           0.0000     RCHA            
                 CHD =         238.3675                   CHD =         238.3675     CHD             

           TOTAL OUT =         238.3675             TOTAL OUT =         238.3675

            IN - OUT =      -1.0985E-02              IN - OUT =      -1.0985E-02

 PERCENT DISCREPANCY =          -0.00     PERCENT DISCREPANCY =          -0.00




         TIME SUMMARY AT END OF TIME STEP    1 IN STRESS PERIOD    1
                    SECONDS     MINUTES      HOURS       DAYS        YEARS
                    -----------------------------------------------------------
   TIME STEP LENGTH  86400.      1440.0      24.000      1.0000     2.73785E-03
 STRESS PERIOD TIME  86400.      1440.0      24.000      1.0000     2.73785E-03
         TOTAL TIME  86400.      1440.0      24.000      1.0000     2.73785E-03

 END OF FILE DETECTED IN OUTPUT CONTROL.
 CURRENT OUTPUT CONTROL SETTINGS WILL BE 
 REPEATED UNTIL THE END OF THE SIMULATION.

 OUTPUT CONTROL FOR STRESS PERIOD 2 IS REPEATED USING SETTINGS FROM A PREVIOUS STRESS PERIOD.


 UPDATING STORAGE VALUES
 END UPDATING STORAGE VALUES


 STRESS PERIOD 2 IS TRANSIENT


                 RECHARGE =  0.3287670E-02
 UBDSV1 SAVING           STO-SS ON UNIT   1016 AT TIME STEP      1, STRESS PERIOD      2
 UBDSV1 SAVING           STO-SY ON UNIT   1016 AT TIME STEP      1, STRESS PERIOD      2
 UBDSV1 SAVING     FLOW-JA-FACE ON UNIT   1016 AT TIME STEP      1, STRESS PERIOD      2
 UBDSV06 SAVING              RCH IN MODEL TEST_TRANS       PACKAGE TEST_TRANS      CONNECTED TO MODEL TEST_TRANS       PACKAGE RCHA             ON UNIT   1016 AT TIME STEP      1, STRESS PERIOD      2
 UBDSV06 SAVING              CHD IN MODEL TEST_TRANS       PACKAGE TEST_TRANS      CONNECTED TO MODEL TEST_TRANS       PACKAGE CHD              ON UNIT   1016 AT TIME STEP      1, STRESS PERIOD      2

 HEAD WILL BE SAVED ON UNIT 1017 AT END OF TIME STEP    1, STRESS PERIOD    2


  VOLUME BUDGET FOR ENTIRE MODEL AT END OF TIME STEP    1, STRESS PERIOD   2
  ---------------------------------------------------------------------------------------------------

     CUMULATIVE VOLUME      L**3       RATES FOR THIS TIME STEP      L**3/T          PACKAGE NAME    
     ------------------                 ------------------------                     ----------------

           IN:                                      IN:
           ---                                      ---
              STO-SS =           0.0000                STO-SS =           0.0000     STORAGE         
              STO-SY =           0.0000                STO-SY =           0.0000     STORAGE         
                 RCH =        1096.4384                   RCH =         286.0273     RCHA            
                 CHD =           0.0000                   CHD =           0.0000     CHD             

            TOTAL IN =        1096.4384              TOTAL IN =         286.0273

          OUT:                                     OUT:
          ----                                     ----
              STO-SS =           0.2791                STO-SS =       9.3038E-02     STORAGE         
              STO-SY =         181.2231                STO-SY =          60.4077     STORAGE         
                 RCH =           0.0000                   RCH =           0.0000     RCHA            
                 CHD =         914.9356                   CHD =         225.5227     CHD             

           TOTAL OUT =        1096.4378             TOTAL OUT =         286.0234

            IN - OUT =       5.7222E-04              IN - OUT =       3.8523E-03

 PERCENT DISCREPANCY =           0.00     PERCENT DISCREPANCY =           0.00




         TIME SUMMARY AT END OF TIME STEP    1 IN STRESS PERIOD    2
                    SECONDS     MINUTES      HOURS       DAYS        YEARS
                    -----------------------------------------------------------
   TIME STEP LENGTH 2.59200E+05  4320.0      72.000      3.0000     8.21355E-03
 STRESS PERIOD TIME 2.59200E+05  4320.0      72.000      3.0000     8.21355E-03
         TOTAL TIME 3.45600E+05  5760.0      96.000      4.0000     1.09514E-02
 UBDSV1 SAVING           STO-SS ON UNIT   1016 AT TIME STEP      2, STRESS PERIOD      2
 UBDSV1 SAVING           STO-SY ON UNIT   1016 AT TIME STEP      2, STRESS PERIOD      2
 UBDSV1 SAVING     FLOW-JA-FACE ON UNIT   1016 AT TIME STEP      2, STRESS PERIOD      2
 UBDSV06 SAVING              RCH IN MODEL TEST_TRANS       PACKAGE TEST_TRANS      CONNECTED TO MODEL TEST_TRANS       PACKAGE RCHA             ON UNIT   1016 AT TIME STEP      2, STRESS PERIOD      2
 UBDSV06 SAVING              CHD IN MODEL TEST_TRANS       PACKAGE TEST_TRANS      CONNECTED TO MODEL TEST_TRANS       PACKAGE CHD              ON UNIT   1016 AT TIME STEP      2, STRESS PERIOD      2

 HEAD WILL BE SAVED ON UNIT 1017 AT END OF TIME STEP    2, STRESS PERIOD    2


  VOLUME BUDGET FOR ENTIRE MODEL AT END OF TIME STEP    2, STRESS PERIOD   2
  ---------------------------------------------------------------------------------------------------

     CUMULATIVE VOLUME      L**3       RATES FOR THIS TIME STEP      L**3/T          PACKAGE NAME    
     ------------------                 ------------------------                     ----------------

           IN:                                      IN:
           ---                                      ---
              STO-SS =           0.0000                STO-SS =           0.0000     STORAGE         
              STO-SY =           0.0000                STO-SY =           0.0000     STORAGE         
                 RCH =        1954.5203                   RCH =         286.0273     RCHA            
                 CHD =           0.0000                   CHD =           0.0000     CHD             

            TOTAL IN =        1954.5203              TOTAL IN =         286.0273

          OUT:                                     OUT:
          ----                                     ----
              STO-SS =           0.5303                STO-SS =       8.3712E-02     STORAGE         
              STO-SY =         341.5080                STO-SY =          53.4283     STORAGE         
                 RCH =           0.0000                   RCH =           0.0000     RCHA            
                 CHD =        1612.4769                   CHD =         232.5138     CHD             

           TOTAL OUT =        1954.5151             TOTAL OUT =         286.0258

            IN - OUT =       5.1020E-03              IN - OUT =       1.5099E-03

 PERCENT DISCREPANCY =           0.00     PERCENT DISCREPANCY =           0.00




         TIME SUMMARY AT END OF TIME STEP    2 IN STRESS PERIOD    2
                    SECONDS     MINUTES      HOURS       DAYS        YEARS
                    -----------------------------------------------------------
   TIME STEP LENGTH 2.59200E+05  4320.0      72.000      3.0000     8.21355E-03
 STRESS PERIOD TIME 5.18400E+05  8640.0      144.00      6.0000     1.64271E-02
         TOTAL TIME 6.04800E+05  10080.      168.00      7.0000     1.91650E-02
 UBDSV1 SAVING           STO-SS ON UNIT   1016 AT TIME STEP      3, STRESS PERIOD      2
 UBDSV1 SAVING           STO-SY ON UNIT   1016 AT TIME STEP      3, STRESS PERIOD      2
 UBDSV1 SAVING     FLOW-JA-FACE ON UNIT   1016 AT TIME STEP      3, STRESS PERIOD      2
 UBDSV06 SAVING              RCH IN MODEL TEST_TRANS       PACKAGE TEST_TRANS      CONNECTED TO MODEL TEST_TRANS       PACKAGE RCHA             ON UNIT   1016 AT TIME STEP      3, STRESS PERIOD      2
 UBDSV06 SAVING              CHD IN MODEL TEST_TRANS       PACKAGE TEST_TRANS      CONNECTED TO MODEL TEST_TRANS       PACKAGE CHD              ON UNIT   1016 AT TIME STEP      3, STRESS PERIOD      2

 HEAD WILL BE SAVED ON UNIT 1017 AT END OF TIME STEP    3, STRESS PERIOD    2


  VOLUME BUDGET FOR ENTIRE MODEL AT END OF TIME STEP    3, STRESS PERIOD   2
  ---------------------------------------------------------------------------------------------------

     CUMULATIVE VOLUME      L**3       RATES FOR THIS TIME STEP      L**3/T          PACKAGE NAME    
     ------------------                 ------------------------                     ----------------

           IN:                                      IN:
           ---                                      ---
              STO-SS =           0.0000                STO-SS =           0.0000     STORAGE         
              STO-SY =           0.0000                STO-SY =           0.0000     STORAGE         
                 RCH =        2812.6021                   RCH =         286.0273     RCHA            
                 CHD =           0.0000                   CHD =           0.0000     CHD             

            TOTAL IN =        2812.6021              TOTAL IN =         286.0273

          OUT:                                     OUT:
          ----                                     ----
              STO-SS =           0.7661                STO-SS =       7.8621E-02     STORAGE         
              STO-SY =         490.6876                STO-SY =          49.7265     STORAGE         
                 RCH =           0.0000                   RCH =           0.0000     RCHA            
                 CHD =        2321.1602                   CHD =         236.2278     CHD             

           TOTAL OUT =        2812.6139             TOTAL OUT =         286.0329

            IN - OUT =      -1.1791E-02              IN - OUT =      -5.6312E-03

 PERCENT DISCREPANCY =          -0.00     PERCENT DISCREPANCY =          -0.00




         TIME SUMMARY AT END OF TIME STEP    3 IN STRESS PERIOD    2
                    SECONDS     MINUTES      HOURS       DAYS        YEARS
                    -----------------------------------------------------------
   TIME STEP LENGTH 2.59200E+05  4320.0      72.000      3.0000     8.21355E-03
 STRESS PERIOD TIME 7.77600E+05  12960.      216.00      9.0000     2.46407E-02
         TOTAL TIME 8.64000E+05  14400.      240.00      10.000     2.73785E-02
 UBDSV1 SAVING           STO-SS ON UNIT   1016 AT TIME STEP      4, STRESS PERIOD      2
 UBDSV1 SAVING           STO-SY ON UNIT   1016 AT TIME STEP      4, STRESS PERIOD      2
 UBDSV1 SAVING     FLOW-JA-FACE ON UNIT   1016 AT TIME STEP      4, STRESS PERIOD      2
 UBDSV06 SAVING              RCH IN MODEL TEST_TRANS       PACKAGE TEST_TRANS      CONNECTED TO MODEL TEST_TRANS       PACKAGE RCHA             ON UNIT   1016 AT TIME STEP      4, STRESS PERIOD      2
 UBDSV06 SAVING              CHD IN MODEL TEST_TRANS       PACKAGE TEST_TRANS      CONNECTED TO MODEL TEST_TRANS       PACKAGE CHD              ON UNIT   1016 AT TIME STEP      4, STRESS PERIOD      2

 HEAD WILL BE SAVED ON UNIT 1017 AT END OF TIME STEP    4, STRESS PERIOD    2


  VOLUME BUDGET FOR ENTIRE MODEL AT END OF TIME STEP    4, STRESS PERIOD   2
  ---------------------------------------------------------------------------------------------------

     CUMULATIVE VOLUME      L**3       RATES FOR THIS TIME STEP      L**3/T          PACKAGE NAME    
     ------------------                 ------------------------                     ----------------

           IN:                                      IN:
           ---                                      ---
              STO-SS =           0.0000                STO-SS =           0.0000     STORAGE         
              STO-SY =           0.0000                STO-SY =           0.0000     STORAGE         
                 RCH =        3670.6840                   RCH =         286.0273     RCHA            
                 CHD =           0.0000                   CHD =           0.0000     CHD             

            TOTAL IN =        3670.6840              TOTAL IN =         286.0273

          OUT:                                     OUT:
          ----                                     ----
              STO-SS =           0.9915                STO-SS =       7.5140E-02     STORAGE         
              STO-SY =         632.4520                STO-SY =          47.2548     STORAGE         
                 RCH =           0.0000                   RCH =           0.0000     RCHA            
                 CHD =        3037.2853                   CHD =         238.7083     CHD             

           TOTAL OUT =        3670.7288             TOTAL OUT =         286.0383

            IN - OUT =      -4.4791E-02              IN - OUT =      -1.1000E-02

 PERCENT DISCREPANCY =          -0.00     PERCENT DISCREPANCY =          -0.00




         TIME SUMMARY AT END OF TIME STEP    4 IN STRESS PERIOD    2
                    SECONDS     MINUTES      HOURS       DAYS        YEARS
                    -----------------------------------------------------------
   TIME STEP LENGTH 2.59200E+05  4320.0      72.000      3.0000     8.21355E-03
 STRESS PERIOD TIME 1.03680E+06  17280.      288.00      12.000     3.28542E-02
         TOTAL TIME 1.12320E+06  18720.      312.00      13.000     3.55921E-02
 UBDSV1 SAVING           STO-SS ON UNIT   1016 AT TIME STEP      5, STRESS PERIOD      2
 UBDSV1 SAVING           STO-SY ON UNIT   1016 AT TIME STEP      5, STRESS PERIOD      2
 UBDSV1 SAVING     FLOW-JA-FACE ON UNIT   1016 AT TIME STEP      5, STRESS PERIOD      2
 UBDSV06 SAVING              RCH IN MODEL TEST_TRANS       PACKAGE TEST_TRANS      CONNECTED TO MODEL TEST_TRANS       PACKAGE RCHA             ON UNIT   1016 AT TIME STEP      5, STRESS PERIOD      2
 UBDSV06 SAVING              CHD IN MODEL TEST_TRANS       PACKAGE TEST_TRANS      CONNECTED TO MODEL TEST_TRANS       PACKAGE CHD              ON UNIT   1016 AT TIME STEP      5, STRESS PERIOD      2

 HEAD WILL BE SAVED ON UNIT 1017 AT END OF TIME STEP    5, STRESS PERIOD    2


  VOLUME BUDGET FOR ENTIRE MODEL AT END OF TIME STEP    5, STRESS PERIOD   2
  ---------------------------------------------------------------------------------------------------

     CUMULATIVE VOLUME      L**3       RATES FOR THIS TIME STEP      L**3/T          PACKAGE NAME    
     ------------------                 ------------------------                     ----------------

           IN:                                      IN:
           ---                                      ---
              STO-SS =           0.0000                STO-SS =           0.0000     STORAGE         
              STO-SY =           0.0000                STO-SY =           0.0000     STORAGE         
                 RCH =        4528.7659                   RCH =         286.0273     RCHA            
                 CHD =           0.0000                   CHD =           0.0000     CHD             

            TOTAL IN =        4528.7659              TOTAL IN =         286.0273

          OUT:                                     OUT:
          ----                                     ----
              STO-SS =           1.2088                STO-SS =       7.2418E-02     STORAGE         
              STO-SY =         768.5339                STO-SY =          45.3606     STORAGE         
                 RCH =           0.0000                   RCH =           0.0000     RCHA            
                 CHD =        3759.0980                   CHD =         240.6042     CHD             

           TOTAL OUT =        4528.8407             TOTAL OUT =         286.0373

            IN - OUT =      -7.4793E-02              IN - OUT =      -1.0001E-02

 PERCENT DISCREPANCY =          -0.00     PERCENT DISCREPANCY =          -0.00




         TIME SUMMARY AT END OF TIME STEP    5 IN STRESS PERIOD    2
                    SECONDS     MINUTES      HOURS       DAYS        YEARS
                    -----------------------------------------------------------
   TIME STEP LENGTH 2.59200E+05  4320.0      72.000      3.0000     8.21355E-03
 STRESS PERIOD TIME 1.29600E+06  21600.      360.00      15.000     4.10678E-02
         TOTAL TIME 1.38240E+06  23040.      384.00      16.000     4.38056E-02
 UBDSV1 SAVING           STO-SS ON UNIT   1016 AT TIME STEP      6, STRESS PERIOD      2
 UBDSV1 SAVING           STO-SY ON UNIT   1016 AT TIME STEP      6, STRESS PERIOD      2
 UBDSV1 SAVING     FLOW-JA-FACE ON UNIT   1016 AT TIME STEP      6, STRESS PERIOD      2
 UBDSV06 SAVING              RCH IN MODEL TEST_TRANS       PACKAGE TEST_TRANS      CONNECTED TO MODEL TEST_TRANS       PACKAGE RCHA             ON UNIT   1016 AT TIME STEP      6, STRESS PERIOD      2
 UBDSV06 SAVING              CHD IN MODEL TEST_TRANS       PACKAGE TEST_TRANS      CONNECTED TO MODEL TEST_TRANS       PACKAGE CHD              ON UNIT   1016 AT TIME STEP      6, STRESS PERIOD      2

 HEAD WILL BE SAVED ON UNIT 1017 AT END OF TIME STEP    6, STRESS PERIOD    2


  VOLUME BUDGET FOR ENTIRE MODEL AT END OF TIME STEP    6, STRESS PERIOD   2
  ---------------------------------------------------------------------------------------------------

     CUMULATIVE VOLUME      L**3       RATES FOR THIS TIME STEP      L**3/T          PACKAGE NAME    
     ------------------                 ------------------------                     ----------------

           IN:                                      IN:
           ---                                      ---
              STO-SS =           0.0000                STO-SS =           0.0000     STORAGE         
              STO-SY =           0.0000                STO-SY =           0.0000     STORAGE         
                 RCH =        5386.8477                   RCH =         286.0273     RCHA            
                 CHD =           0.0000                   CHD =           0.0000     CHD             

            TOTAL IN =        5386.8477              TOTAL IN =         286.0273

          OUT:                                     OUT:
          ----                                     ----
              STO-SS =           1.4192                STO-SS =       7.0136E-02     STORAGE         
              STO-SY =         899.9234                STO-SY =          43.7965     STORAGE         
                 RCH =           0.0000                   RCH =           0.0000     RCHA            
                 CHD =        4485.6074                   CHD =         242.1698     CHD             

           TOTAL OUT =        5386.9500             TOTAL OUT =         286.0364

            IN - OUT =          -0.1022              IN - OUT =      -9.1462E-03

 PERCENT DISCREPANCY =          -0.00     PERCENT DISCREPANCY =          -0.00




         TIME SUMMARY AT END OF TIME STEP    6 IN STRESS PERIOD    2
                    SECONDS     MINUTES      HOURS       DAYS        YEARS
                    -----------------------------------------------------------
   TIME STEP LENGTH 2.59200E+05  4320.0      72.000      3.0000     8.21355E-03
 STRESS PERIOD TIME 1.55520E+06  25920.      432.00      18.000     4.92813E-02
         TOTAL TIME 1.64160E+06  27360.      456.00      19.000     5.20192E-02
 UBDSV1 SAVING           STO-SS ON UNIT   1016 AT TIME STEP      7, STRESS PERIOD      2
 UBDSV1 SAVING           STO-SY ON UNIT   1016 AT TIME STEP      7, STRESS PERIOD      2
 UBDSV1 SAVING     FLOW-JA-FACE ON UNIT   1016 AT TIME STEP      7, STRESS PERIOD      2
 UBDSV06 SAVING              RCH IN MODEL TEST_TRANS       PACKAGE TEST_TRANS      CONNECTED TO MODEL TEST_TRANS       PACKAGE RCHA             ON UNIT   1016 AT TIME STEP      7, STRESS PERIOD      2
 UBDSV06 SAVING              CHD IN MODEL TEST_TRANS       PACKAGE TEST_TRANS      CONNECTED TO MODEL TEST_TRANS       PACKAGE CHD              ON UNIT   1016 AT TIME STEP      7, STRESS PERIOD      2

 HEAD WILL BE SAVED ON UNIT 1017 AT END OF TIME STEP    7, STRESS PERIOD    2


  VOLUME BUDGET FOR ENTIRE MODEL AT END OF TIME STEP    7, STRESS PERIOD   2
  ---------------------------------------------------------------------------------------------------

     CUMULATIVE VOLUME      L**3       RATES FOR THIS TIME STEP      L**3/T          PACKAGE NAME    
     ------------------                 ------------------------                     ----------------

           IN:                                      IN:
           ---                                      ---
              STO-SS =           0.0000                STO-SS =           0.0000     STORAGE         
              STO-SY =           0.0000                STO-SY =           0.0000     STORAGE         
                 RCH =        6244.9296                   RCH =         286.0273     RCHA            
                 CHD =           0.0000                   CHD =           0.0000     CHD             

            TOTAL IN =        6244.9296              TOTAL IN =         286.0273

          OUT:                                     OUT:
          ----                                     ----
              STO-SS =           1.6236                STO-SS =       6.8137E-02     STORAGE         
              STO-SY =        1027.2529                STO-SY =          42.4432     STORAGE         
                 RCH =           0.0000                   RCH =           0.0000     RCHA            
                 CHD =        5216.1805                   CHD =         243.5244     CHD             

           TOTAL OUT =        6245.0571             TOTAL OUT =         286.0357

            IN - OUT =          -0.1275              IN - OUT =      -8.4228E-03

 PERCENT DISCREPANCY =          -0.00     PERCENT DISCREPANCY =          -0.00




         TIME SUMMARY AT END OF TIME STEP    7 IN STRESS PERIOD    2
                    SECONDS     MINUTES      HOURS       DAYS        YEARS
                    -----------------------------------------------------------
   TIME STEP LENGTH 2.59200E+05  4320.0      72.000      3.0000     8.21355E-03
 STRESS PERIOD TIME 1.81440E+06  30240.      504.00      21.000     5.74949E-02
         TOTAL TIME 1.90080E+06  31680.      528.00      22.000     6.02327E-02
 UBDSV1 SAVING           STO-SS ON UNIT   1016 AT TIME STEP      8, STRESS PERIOD      2
 UBDSV1 SAVING           STO-SY ON UNIT   1016 AT TIME STEP      8, STRESS PERIOD      2
 UBDSV1 SAVING     FLOW-JA-FACE ON UNIT   1016 AT TIME STEP      8, STRESS PERIOD      2
 UBDSV06 SAVING              RCH IN MODEL TEST_TRANS       PACKAGE TEST_TRANS      CONNECTED TO MODEL TEST_TRANS       PACKAGE RCHA             ON UNIT   1016 AT TIME STEP      8, STRESS PERIOD      2
 UBDSV06 SAVING              CHD IN MODEL TEST_TRANS       PACKAGE TEST_TRANS      CONNECTED TO MODEL TEST_TRANS       PACKAGE CHD              ON UNIT   1016 AT TIME STEP      8, STRESS PERIOD      2

 HEAD WILL BE SAVED ON UNIT 1017 AT END OF TIME STEP    8, STRESS PERIOD    2


  VOLUME BUDGET FOR ENTIRE MODEL AT END OF TIME STEP    8, STRESS PERIOD   2
  ---------------------------------------------------------------------------------------------------

     CUMULATIVE VOLUME      L**3       RATES FOR THIS TIME STEP      L**3/T          PACKAGE NAME    
     ------------------                 ------------------------                     ----------------

           IN:                                      IN:
           ---                                      ---
              STO-SS =           0.0000                STO-SS =           0.0000     STORAGE         
              STO-SY =           0.0000                STO-SY =           0.0000     STORAGE         
                 RCH =        7103.0115                   RCH =         286.0273     RCHA            
                 CHD =           0.0000                   CHD =           0.0000     CHD             

            TOTAL IN =        7103.0115              TOTAL IN =         286.0273

          OUT:                                     OUT:
          ----                                     ----
              STO-SS =           1.8226                STO-SS =       6.6336E-02     STORAGE         
              STO-SY =        1150.9627                STO-SY =          41.2366     STORAGE         
                 RCH =           0.0000                   RCH =           0.0000     RCHA            
                 CHD =        5950.3772                   CHD =         244.7322     CHD             

           TOTAL OUT =        7103.1624             TOTAL OUT =         286.0351

            IN - OUT =          -0.1510              IN - OUT =      -7.8266E-03

 PERCENT DISCREPANCY =          -0.00     PERCENT DISCREPANCY =          -0.00




         TIME SUMMARY AT END OF TIME STEP    8 IN STRESS PERIOD    2
                    SECONDS     MINUTES      HOURS       DAYS        YEARS
                    -----------------------------------------------------------
   TIME STEP LENGTH 2.59200E+05  4320.0      72.000      3.0000     8.21355E-03
 STRESS PERIOD TIME 2.07360E+06  34560.      576.00      24.000     6.57084E-02
         TOTAL TIME 2.16000E+06  36000.      600.00      25.000     6.84463E-02
 UBDSV1 SAVING           STO-SS ON UNIT   1016 AT TIME STEP      9, STRESS PERIOD      2
 UBDSV1 SAVING           STO-SY ON UNIT   1016 AT TIME STEP      9, STRESS PERIOD      2
 UBDSV1 SAVING     FLOW-JA-FACE ON UNIT   1016 AT TIME STEP      9, STRESS PERIOD      2
 UBDSV06 SAVING              RCH IN MODEL TEST_TRANS       PACKAGE TEST_TRANS      CONNECTED TO MODEL TEST_TRANS       PACKAGE RCHA             ON UNIT   1016 AT TIME STEP      9, STRESS PERIOD      2
 UBDSV06 SAVING              CHD IN MODEL TEST_TRANS       PACKAGE TEST_TRANS      CONNECTED TO MODEL TEST_TRANS       PACKAGE CHD              ON UNIT   1016 AT TIME STEP      9, STRESS PERIOD      2

 HEAD WILL BE SAVED ON UNIT 1017 AT END OF TIME STEP    9, STRESS PERIOD    2


  VOLUME BUDGET FOR ENTIRE MODEL AT END OF TIME STEP    9, STRESS PERIOD   2
  ---------------------------------------------------------------------------------------------------

     CUMULATIVE VOLUME      L**3       RATES FOR THIS TIME STEP      L**3/T          PACKAGE NAME    
     ------------------                 ------------------------                     ----------------

           IN:                                      IN:
           ---                                      ---
              STO-SS =           0.0000                STO-SS =           0.0000     STORAGE         
              STO-SY =           0.0000                STO-SY =           0.0000     STORAGE         
                 RCH =        7961.0933                   RCH =         286.0273     RCHA            
                 CHD =           0.0000                   CHD =           0.0000     CHD             

            TOTAL IN =        7961.0933              TOTAL IN =         286.0273

          OUT:                                     OUT:
          ----                                     ----
              STO-SS =           2.0167                STO-SS =       6.4684E-02     STORAGE         
              STO-SY =        1271.3781                STO-SY =          40.1385     STORAGE         
                 RCH =           0.0000                   RCH =           0.0000     RCHA            
                 CHD =        6687.8715                   CHD =         245.8315     CHD             

           TOTAL OUT =        7961.2663             TOTAL OUT =         286.0346

            IN - OUT =          -0.1730              IN - OUT =      -7.3344E-03

 PERCENT DISCREPANCY =          -0.00     PERCENT DISCREPANCY =          -0.00




         TIME SUMMARY AT END OF TIME STEP    9 IN STRESS PERIOD    2
                    SECONDS     MINUTES      HOURS       DAYS        YEARS
                    -----------------------------------------------------------
   TIME STEP LENGTH 2.59200E+05  4320.0      72.000      3.0000     8.21355E-03
 STRESS PERIOD TIME 2.33280E+06  38880.      648.00      27.000     7.39220E-02
         TOTAL TIME 2.41920E+06  40320.      672.00      28.000     7.66598E-02
 UBDSV1 SAVING           STO-SS ON UNIT   1016 AT TIME STEP     10, STRESS PERIOD      2
 UBDSV1 SAVING           STO-SY ON UNIT   1016 AT TIME STEP     10, STRESS PERIOD      2
 UBDSV1 SAVING     FLOW-JA-FACE ON UNIT   1016 AT TIME STEP     10, STRESS PERIOD      2
 UBDSV06 SAVING              RCH IN MODEL TEST_TRANS       PACKAGE TEST_TRANS      CONNECTED TO MODEL TEST_TRANS       PACKAGE RCHA             ON UNIT   1016 AT TIME STEP     10, STRESS PERIOD      2
 UBDSV06 SAVING              CHD IN MODEL TEST_TRANS       PACKAGE TEST_TRANS      CONNECTED TO MODEL TEST_TRANS       PACKAGE CHD              ON UNIT   1016 AT TIME STEP     10, STRESS PERIOD      2

 HEAD WILL BE SAVED ON UNIT 1017 AT END OF TIME STEP   10, STRESS PERIOD    2


  VOLUME BUDGET FOR ENTIRE MODEL AT END OF TIME STEP   10, STRESS PERIOD   2
  ---------------------------------------------------------------------------------------------------

     CUMULATIVE VOLUME      L**3       RATES FOR THIS TIME STEP      L**3/T          PACKAGE NAME    
     ------------------                 ------------------------                     ----------------

           IN:                                      IN:
           ---                                      ---
              STO-SS =           0.0000                STO-SS =           0.0000     STORAGE         
              STO-SY =           0.0000                STO-SY =           0.0000     STORAGE         
                 RCH =        8819.1752                   RCH =         286.0273     RCHA            
                 CHD =           0.0000                   CHD =           0.0000     CHD             

            TOTAL IN =        8819.1752              TOTAL IN =         286.0273

          OUT:                                     OUT:
          ----                                     ----
              STO-SS =           2.2061                STO-SS =       6.3146E-02     STORAGE         
              STO-SY =        1388.7514                STO-SY =          39.1244     STORAGE         
                 RCH =           0.0000                   RCH =           0.0000     RCHA            
                 CHD =        7428.4114                   CHD =         246.8466     CHD             

           TOTAL OUT =        8819.3690             TOTAL OUT =         286.0342

            IN - OUT =          -0.1938              IN - OUT =      -6.9234E-03

 PERCENT DISCREPANCY =          -0.00     PERCENT DISCREPANCY =          -0.00




         TIME SUMMARY AT END OF TIME STEP   10 IN STRESS PERIOD    2
                    SECONDS     MINUTES      HOURS       DAYS        YEARS
                    -----------------------------------------------------------
   TIME STEP LENGTH 2.59200E+05  4320.0      72.000      3.0000     8.21355E-03
 STRESS PERIOD TIME 2.59200E+06  43200.      720.00      30.000     8.21355E-02
         TOTAL TIME 2.67840E+06  44640.      744.00      31.000     8.48734E-02

 OUTPUT CONTROL FOR STRESS PERIOD 3 IS REPEATED USING SETTINGS FROM A PREVIOUS STRESS PERIOD.


 STRESS PERIOD 3 IS TRANSIENT


                 RECHARGE =  0.2465750E-02
 UBDSV1 SAVING           STO-SS ON UNIT   1016 AT TIME STEP      1, STRESS PERIOD      3
 UBDSV1 SAVING           STO-SY ON UNIT   1016 AT TIME STEP      1, STRESS PERIOD      3
 UBDSV1 SAVING     FLOW-JA-FACE ON UNIT   1016 AT TIME STEP      1, STRESS PERIOD      3
 UBDSV06 SAVING              RCH IN MODEL TEST_TRANS       PACKAGE TEST_TRANS      CONNECTED TO MODEL TEST_TRANS       PACKAGE RCHA             ON UNIT   1016 AT TIME STEP      1, STRESS PERIOD      3
 UBDSV06 SAVING              CHD IN MODEL TEST_TRANS       PACKAGE TEST_TRANS      CONNECTED TO MODEL TEST_TRANS       PACKAGE CHD              ON UNIT   1016 AT TIME STEP      1, STRESS PERIOD      3

 HEAD WILL BE SAVED ON UNIT 1017 AT END OF TIME STEP    1, STRESS PERIOD    3


  VOLUME BUDGET FOR ENTIRE MODEL AT END OF TIME STEP    1, STRESS PERIOD   3
  ---------------------------------------------------------------------------------------------------

     CUMULATIVE VOLUME      L**3       RATES FOR THIS TIME STEP      L**3/T          PACKAGE NAME    
     ------------------                 ------------------------                     ----------------

           IN:                                      IN:
           ---                                      ---
              STO-SS =           0.1024                STO-SS =       3.4135E-02     STORAGE         
              STO-SY =          62.2908                STO-SY =          20.7636     STORAGE         
                 RCH =        9462.7360                   RCH =         214.5203     RCHA            
                 CHD =           0.0000                   CHD =           0.0000     CHD             

            TOTAL IN =        9525.1292              TOTAL IN =         235.3180

          OUT:                                     OUT:
          ----                                     ----
              STO-SS =           2.3931                STO-SS =       6.2322E-02     STORAGE         
              STO-SY =        1525.0289                STO-SY =          45.4258     STORAGE         
                 RCH =           0.0000                   RCH =           0.0000     RCHA            
                 CHD =        7997.8856                   CHD =         189.8247     CHD             

           TOTAL OUT =        9525.3076             TOTAL OUT =         235.3129

            IN - OUT =          -0.1784              IN - OUT =       5.1266E-03

 PERCENT DISCREPANCY =          -0.00     PERCENT DISCREPANCY =           0.00




         TIME SUMMARY AT END OF TIME STEP    1 IN STRESS PERIOD    3
                    SECONDS     MINUTES      HOURS       DAYS        YEARS
                    -----------------------------------------------------------
   TIME STEP LENGTH 2.59200E+05  4320.0      72.000      3.0000     8.21355E-03
 STRESS PERIOD TIME 2.59200E+05  4320.0      72.000      3.0000     8.21355E-03
         TOTAL TIME 2.93760E+06  48960.      816.00      34.000     9.30869E-02
 UBDSV1 SAVING           STO-SS ON UNIT   1016 AT TIME STEP      2, STRESS PERIOD      3
 UBDSV1 SAVING           STO-SY ON UNIT   1016 AT TIME STEP      2, STRESS PERIOD      3
 UBDSV1 SAVING     FLOW-JA-FACE ON UNIT   1016 AT TIME STEP      2, STRESS PERIOD      3
 UBDSV06 SAVING              RCH IN MODEL TEST_TRANS       PACKAGE TEST_TRANS      CONNECTED TO MODEL TEST_TRANS       PACKAGE RCHA             ON UNIT   1016 AT TIME STEP      2, STRESS PERIOD      3
 UBDSV06 SAVING              CHD IN MODEL TEST_TRANS       PACKAGE TEST_TRANS      CONNECTED TO MODEL TEST_TRANS       PACKAGE CHD              ON UNIT   1016 AT TIME STEP      2, STRESS PERIOD      3

 HEAD WILL BE SAVED ON UNIT 1017 AT END OF TIME STEP    2, STRESS PERIOD    3


  VOLUME BUDGET FOR ENTIRE MODEL AT END OF TIME STEP    2, STRESS PERIOD   3
  ---------------------------------------------------------------------------------------------------

     CUMULATIVE VOLUME      L**3       RATES FOR THIS TIME STEP      L**3/T          PACKAGE NAME    
     ------------------                 ------------------------                     ----------------

           IN:                                      IN:
           ---                                      ---
              STO-SS =           0.1938                STO-SS =       3.0455E-02     STORAGE         
              STO-SY =         117.5488                STO-SY =          18.4193     STORAGE         
                 RCH =       10106.2967                   RCH =         214.5203     RCHA            
                 CHD =           0.0000                   CHD =           0.0000     CHD             

            TOTAL IN =       10224.0393              TOTAL IN =         232.9700

          OUT:                                     OUT:
          ----                                     ----
              STO-SS =           2.4946                STO-SS =       3.3835E-02     STORAGE         
              STO-SY =        1597.3767                STO-SY =          24.1159     STORAGE         
                 RCH =           0.0000                   RCH =           0.0000     RCHA            
                 CHD =        8624.3369                   CHD =         208.8171     CHD             

           TOTAL OUT =       10224.2082             TOTAL OUT =         232.9669

            IN - OUT =          -0.1689              IN - OUT =       3.1524E-03

 PERCENT DISCREPANCY =          -0.00     PERCENT DISCREPANCY =           0.00




         TIME SUMMARY AT END OF TIME STEP    2 IN STRESS PERIOD    3
                    SECONDS     MINUTES      HOURS       DAYS        YEARS
                    -----------------------------------------------------------
   TIME STEP LENGTH 2.59200E+05  4320.0      72.000      3.0000     8.21355E-03
 STRESS PERIOD TIME 5.18400E+05  8640.0      144.00      6.0000     1.64271E-02
         TOTAL TIME 3.19680E+06  53280.      888.00      37.000     0.10130    
 UBDSV1 SAVING           STO-SS ON UNIT   1016 AT TIME STEP      3, STRESS PERIOD      3
 UBDSV1 SAVING           STO-SY ON UNIT   1016 AT TIME STEP      3, STRESS PERIOD      3
 UBDSV1 SAVING     FLOW-JA-FACE ON UNIT   1016 AT TIME STEP      3, STRESS PERIOD      3
 UBDSV06 SAVING              RCH IN MODEL TEST_TRANS       PACKAGE TEST_TRANS      CONNECTED TO MODEL TEST_TRANS       PACKAGE RCHA             ON UNIT   1016 AT TIME STEP      3, STRESS PERIOD      3
 UBDSV06 SAVING              CHD IN MODEL TEST_TRANS       PACKAGE TEST_TRANS      CONNECTED TO MODEL TEST_TRANS       PACKAGE CHD              ON UNIT   1016 AT TIME STEP      3, STRESS PERIOD      3

 HEAD WILL BE SAVED ON UNIT 1017 AT END OF TIME STEP    3, STRESS PERIOD    3


  VOLUME BUDGET FOR ENTIRE MODEL AT END OF TIME STEP    3, STRESS PERIOD   3
  ---------------------------------------------------------------------------------------------------

     CUMULATIVE VOLUME      L**3       RATES FOR THIS TIME STEP      L**3/T          PACKAGE NAME    
     ------------------                 ------------------------                     ----------------

           IN:                                      IN:
           ---                                      ---
              STO-SS =           0.2773                STO-SS =       2.7829E-02     STORAGE         
              STO-SY =         167.8764                STO-SY =          16.7759     STORAGE         
                 RCH =       10749.8575                   RCH =         214.5203     RCHA            
                 CHD =           0.0000                   CHD =           0.0000     CHD             

            TOTAL IN =       10918.0111              TOTAL IN =         231.3240

          OUT:                                     OUT:
          ----                                     ----
              STO-SS =           2.5584                STO-SS =       2.1284E-02     STORAGE         
              STO-SY =        1642.2537                STO-SY =          14.9590     STORAGE         
                 RCH =           0.0000                   RCH =           0.0000     RCHA            
                 CHD =        9273.3660                   CHD =         216.3430     CHD             

           TOTAL OUT =       10918.1781             TOTAL OUT =         231.3233

            IN - OUT =          -0.1670              IN - OUT =       6.5074E-04

 PERCENT DISCREPANCY =          -0.00     PERCENT DISCREPANCY =           0.00




         TIME SUMMARY AT END OF TIME STEP    3 IN STRESS PERIOD    3
                    SECONDS     MINUTES      HOURS       DAYS        YEARS
                    -----------------------------------------------------------
   TIME STEP LENGTH 2.59200E+05  4320.0      72.000      3.0000     8.21355E-03
 STRESS PERIOD TIME 7.77600E+05  12960.      216.00      9.0000     2.46407E-02
         TOTAL TIME 3.45600E+06  57600.      960.00      40.000     0.10951    
 UBDSV1 SAVING           STO-SS ON UNIT   1016 AT TIME STEP      4, STRESS PERIOD      3
 UBDSV1 SAVING           STO-SY ON UNIT   1016 AT TIME STEP      4, STRESS PERIOD      3
 UBDSV1 SAVING     FLOW-JA-FACE ON UNIT   1016 AT TIME STEP      4, STRESS PERIOD      3
 UBDSV06 SAVING              RCH IN MODEL TEST_TRANS       PACKAGE TEST_TRANS      CONNECTED TO MODEL TEST_TRANS       PACKAGE RCHA             ON UNIT   1016 AT TIME STEP      4, STRESS PERIOD      3
 UBDSV06 SAVING              CHD IN MODEL TEST_TRANS       PACKAGE TEST_TRANS      CONNECTED TO MODEL TEST_TRANS       PACKAGE CHD              ON UNIT   1016 AT TIME STEP      4, STRESS PERIOD      3

 HEAD WILL BE SAVED ON UNIT 1017 AT END OF TIME STEP    4, STRESS PERIOD    3


  VOLUME BUDGET FOR ENTIRE MODEL AT END OF TIME STEP    4, STRESS PERIOD   3
  ---------------------------------------------------------------------------------------------------

     CUMULATIVE VOLUME      L**3       RATES FOR THIS TIME STEP      L**3/T          PACKAGE NAME    
     ------------------                 ------------------------                     ----------------

           IN:                                      IN:
           ---                                      ---
              STO-SS =           0.3545                STO-SS =       2.5763E-02     STORAGE         
              STO-SY =         214.3694                STO-SY =          15.4976     STORAGE         
                 RCH =       11393.4182                   RCH =         214.5203     RCHA            
                 CHD =           0.0000                   CHD =           0.0000     CHD             

            TOTAL IN =       11608.1421              TOTAL IN =         230.0437

          OUT:                                     OUT:
          ----                                     ----
              STO-SS =           2.6014                STO-SS =       1.4309E-02     STORAGE         
              STO-SY =        1672.1573                STO-SY =           9.9679     STORAGE         
                 RCH =           0.0000                   RCH =           0.0000     RCHA            
                 CHD =        9933.5538                   CHD =         220.0626     CHD             

           TOTAL OUT =       11608.3125             TOTAL OUT =         230.0448

            IN - OUT =          -0.1704              IN - OUT =      -1.1306E-03

 PERCENT DISCREPANCY =          -0.00     PERCENT DISCREPANCY =          -0.00




         TIME SUMMARY AT END OF TIME STEP    4 IN STRESS PERIOD    3
                    SECONDS     MINUTES      HOURS       DAYS        YEARS
                    -----------------------------------------------------------
   TIME STEP LENGTH 2.59200E+05  4320.0      72.000      3.0000     8.21355E-03
 STRESS PERIOD TIME 1.03680E+06  17280.      288.00      12.000     3.28542E-02
         TOTAL TIME 3.71520E+06  61920.      1032.0      43.000     0.11773    
 UBDSV1 SAVING           STO-SS ON UNIT   1016 AT TIME STEP      5, STRESS PERIOD      3
 UBDSV1 SAVING           STO-SY ON UNIT   1016 AT TIME STEP      5, STRESS PERIOD      3
 UBDSV1 SAVING     FLOW-JA-FACE ON UNIT   1016 AT TIME STEP      5, STRESS PERIOD      3
 UBDSV06 SAVING              RCH IN MODEL TEST_TRANS       PACKAGE TEST_TRANS      CONNECTED TO MODEL TEST_TRANS       PACKAGE RCHA             ON UNIT   1016 AT TIME STEP      5, STRESS PERIOD      3
 UBDSV06 SAVING              CHD IN MODEL TEST_TRANS       PACKAGE TEST_TRANS      CONNECTED TO MODEL TEST_TRANS       PACKAGE CHD              ON UNIT   1016 AT TIME STEP      5, STRESS PERIOD      3

 HEAD WILL BE SAVED ON UNIT 1017 AT END OF TIME STEP    5, STRESS PERIOD    3


  VOLUME BUDGET FOR ENTIRE MODEL AT END OF TIME STEP    5, STRESS PERIOD   3
  ---------------------------------------------------------------------------------------------------

     CUMULATIVE VOLUME      L**3       RATES FOR THIS TIME STEP      L**3/T          PACKAGE NAME    
     ------------------                 ------------------------                     ----------------

           IN:                                      IN:
           ---                                      ---
              STO-SS =           0.4271                STO-SS =       2.4182E-02     STORAGE         
              STO-SY =         257.9598                STO-SY =          14.5301     STORAGE         
                 RCH =       12036.9790                   RCH =         214.5203     RCHA            
                 CHD =           0.0000                   CHD =           0.0000     CHD             

            TOTAL IN =       12295.3659              TOTAL IN =         229.0746

          OUT:                                     OUT:
          ----                                     ----
              STO-SS =           2.6312                STO-SS =       9.9394E-03     STORAGE         
              STO-SY =        1692.8078                STO-SY =           6.8835     STORAGE         
                 RCH =           0.0000                   RCH =           0.0000     RCHA            
                 CHD =       10600.1062                   CHD =         222.1841     CHD             

           TOTAL OUT =       12295.5452             TOTAL OUT =         229.0776

            IN - OUT =          -0.1793              IN - OUT =      -2.9792E-03

 PERCENT DISCREPANCY =          -0.00     PERCENT DISCREPANCY =          -0.00




         TIME SUMMARY AT END OF TIME STEP    5 IN STRESS PERIOD    3
                    SECONDS     MINUTES      HOURS       DAYS        YEARS
                    -----------------------------------------------------------
   TIME STEP LENGTH 2.59200E+05  4320.0      72.000      3.0000     8.21355E-03
 STRESS PERIOD TIME 1.29600E+06  21600.      360.00      15.000     4.10678E-02
         TOTAL TIME 3.97440E+06  66240.      1104.0      46.000     0.12594    
 UBDSV1 SAVING           STO-SS ON UNIT   1016 AT TIME STEP      6, STRESS PERIOD      3
 UBDSV1 SAVING           STO-SY ON UNIT   1016 AT TIME STEP      6, STRESS PERIOD      3
 UBDSV1 SAVING     FLOW-JA-FACE ON UNIT   1016 AT TIME STEP      6, STRESS PERIOD      3
 UBDSV06 SAVING              RCH IN MODEL TEST_TRANS       PACKAGE TEST_TRANS      CONNECTED TO MODEL TEST_TRANS       PACKAGE RCHA             ON UNIT   1016 AT TIME STEP      6, STRESS PERIOD      3
 UBDSV06 SAVING              CHD IN MODEL TEST_TRANS       PACKAGE TEST_TRANS      CONNECTED TO MODEL TEST_TRANS       PACKAGE CHD              ON UNIT   1016 AT TIME STEP      6, STRESS PERIOD      3

 HEAD WILL BE SAVED ON UNIT 1017 AT END OF TIME STEP    6, STRESS PERIOD    3


  VOLUME BUDGET FOR ENTIRE MODEL AT END OF TIME STEP    6, STRESS PERIOD   3
  ---------------------------------------------------------------------------------------------------

     CUMULATIVE VOLUME      L**3       RATES FOR THIS TIME STEP      L**3/T          PACKAGE NAME    
     ------------------                 ------------------------                     ----------------

           IN:                                      IN:
           ---                                      ---
              STO-SS =           0.4957                STO-SS =       2.2877E-02     STORAGE         
              STO-SY =         299.1713                STO-SY =          13.7372     STORAGE         
                 RCH =       12680.5397                   RCH =         214.5203     RCHA            
                 CHD =           0.0000                   CHD =           0.0000     CHD             

            TOTAL IN =       12980.2068              TOTAL IN =         228.2803

          OUT:                                     OUT:
          ----                                     ----
              STO-SS =           2.6519                STO-SS =       6.9169E-03     STORAGE         
              STO-SY =        1707.1321                STO-SY =           4.7748     STORAGE         
                 RCH =           0.0000                   RCH =           0.0000     RCHA            
                 CHD =       11270.6080                   CHD =         223.5006     CHD             

           TOTAL OUT =       12980.3920             TOTAL OUT =         228.2823

            IN - OUT =          -0.1853              IN - OUT =      -1.9865E-03

 PERCENT DISCREPANCY =          -0.00     PERCENT DISCREPANCY =          -0.00




         TIME SUMMARY AT END OF TIME STEP    6 IN STRESS PERIOD    3
                    SECONDS     MINUTES      HOURS       DAYS        YEARS
                    -----------------------------------------------------------
   TIME STEP LENGTH 2.59200E+05  4320.0      72.000      3.0000     8.21355E-03
 STRESS PERIOD TIME 1.55520E+06  25920.      432.00      18.000     4.92813E-02
         TOTAL TIME 4.23360E+06  70560.      1176.0      49.000     0.13415    
 UBDSV1 SAVING           STO-SS ON UNIT   1016 AT TIME STEP      7, STRESS PERIOD      3
 UBDSV1 SAVING           STO-SY ON UNIT   1016 AT TIME STEP      7, STRESS PERIOD      3
 UBDSV1 SAVING     FLOW-JA-FACE ON UNIT   1016 AT TIME STEP      7, STRESS PERIOD      3
 UBDSV06 SAVING              RCH IN MODEL TEST_TRANS       PACKAGE TEST_TRANS      CONNECTED TO MODEL TEST_TRANS       PACKAGE RCHA             ON UNIT   1016 AT TIME STEP      7, STRESS PERIOD      3
 UBDSV06 SAVING              CHD IN MODEL TEST_TRANS       PACKAGE TEST_TRANS      CONNECTED TO MODEL TEST_TRANS       PACKAGE CHD              ON UNIT   1016 AT TIME STEP      7, STRESS PERIOD      3

 HEAD WILL BE SAVED ON UNIT 1017 AT END OF TIME STEP    7, STRESS PERIOD    3


  VOLUME BUDGET FOR ENTIRE MODEL AT END OF TIME STEP    7, STRESS PERIOD   3
  ---------------------------------------------------------------------------------------------------

     CUMULATIVE VOLUME      L**3       RATES FOR THIS TIME STEP      L**3/T          PACKAGE NAME    
     ------------------                 ------------------------                     ----------------

           IN:                                      IN:
           ---                                      ---
              STO-SS =           0.5611                STO-SS =       2.1805E-02     STORAGE         
              STO-SY =         338.4434                STO-SY =          13.0907     STORAGE         
                 RCH =       13324.1005                   RCH =         214.5203     RCHA            
                 CHD =           0.0000                   CHD =           0.0000     CHD             

            TOTAL IN =       13663.1050              TOTAL IN =         227.6327

          OUT:                                     OUT:
          ----                                     ----
              STO-SS =           2.6662                STO-SS =       4.7443E-03     STORAGE         
              STO-SY =        1716.9462                STO-SY =           3.2714     STORAGE         
                 RCH =           0.0000                   RCH =           0.0000     RCHA            
                 CHD =       11943.6816                   CHD =         224.3579     CHD             

           TOTAL OUT =       13663.2940             TOTAL OUT =         227.6340

            IN - OUT =          -0.1890              IN - OUT =      -1.2593E-03

 PERCENT DISCREPANCY =          -0.00     PERCENT DISCREPANCY =          -0.00




         TIME SUMMARY AT END OF TIME STEP    7 IN STRESS PERIOD    3
                    SECONDS     MINUTES      HOURS       DAYS        YEARS
                    -----------------------------------------------------------
   TIME STEP LENGTH 2.59200E+05  4320.0      72.000      3.0000     8.21355E-03
 STRESS PERIOD TIME 1.81440E+06  30240.      504.00      21.000     5.74949E-02
         TOTAL TIME 4.49280E+06  74880.      1248.0      52.000     0.14237    
 UBDSV1 SAVING           STO-SS ON UNIT   1016 AT TIME STEP      8, STRESS PERIOD      3
 UBDSV1 SAVING           STO-SY ON UNIT   1016 AT TIME STEP      8, STRESS PERIOD      3
 UBDSV1 SAVING     FLOW-JA-FACE ON UNIT   1016 AT TIME STEP      8, STRESS PERIOD      3
 UBDSV06 SAVING              RCH IN MODEL TEST_TRANS       PACKAGE TEST_TRANS      CONNECTED TO MODEL TEST_TRANS       PACKAGE RCHA             ON UNIT   1016 AT TIME STEP      8, STRESS PERIOD      3
 UBDSV06 SAVING              CHD IN MODEL TEST_TRANS       PACKAGE TEST_TRANS      CONNECTED TO MODEL TEST_TRANS       PACKAGE CHD              ON UNIT   1016 AT TIME STEP      8, STRESS PERIOD      3

 HEAD WILL BE SAVED ON UNIT 1017 AT END OF TIME STEP    8, STRESS PERIOD    3


  VOLUME BUDGET FOR ENTIRE MODEL AT END OF TIME STEP    8, STRESS PERIOD   3
  ---------------------------------------------------------------------------------------------------

     CUMULATIVE VOLUME      L**3       RATES FOR THIS TIME STEP      L**3/T          PACKAGE NAME    
     ------------------                 ------------------------                     ----------------

           IN:                                      IN:
           ---                                      ---
              STO-SS =           0.6239                STO-SS =       2.0935E-02     STORAGE         
              STO-SY =         376.1534                STO-SY =          12.5700     STORAGE         
                 RCH =       13967.6612                   RCH =         214.5203     RCHA            
                 CHD =           0.0000                   CHD =           0.0000     CHD             

            TOTAL IN =       14344.4385              TOTAL IN =         227.1112

          OUT:                                     OUT:
          ----                                     ----
              STO-SS =           2.6756                STO-SS =       3.1589E-03     STORAGE         
              STO-SY =        1723.4858                STO-SY =           2.1799     STORAGE         
                 RCH =           0.0000                   RCH =           0.0000     RCHA            
                 CHD =       12618.4705                   CHD =         224.9296     CHD             

           TOTAL OUT =       14344.6319             TOTAL OUT =         227.1126

            IN - OUT =          -0.1934              IN - OUT =      -1.4615E-03

 PERCENT DISCREPANCY =          -0.00     PERCENT DISCREPANCY =          -0.00




         TIME SUMMARY AT END OF TIME STEP    8 IN STRESS PERIOD    3
                    SECONDS     MINUTES      HOURS       DAYS        YEARS
                    -----------------------------------------------------------
   TIME STEP LENGTH 2.59200E+05  4320.0      72.000      3.0000     8.21355E-03
 STRESS PERIOD TIME 2.07360E+06  34560.      576.00      24.000     6.57084E-02
         TOTAL TIME 4.75200E+06  79200.      1320.0      55.000     0.15058    
 UBDSV1 SAVING           STO-SS ON UNIT   1016 AT TIME STEP      9, STRESS PERIOD      3
 UBDSV1 SAVING           STO-SY ON UNIT   1016 AT TIME STEP      9, STRESS PERIOD      3
 UBDSV1 SAVING     FLOW-JA-FACE ON UNIT   1016 AT TIME STEP      9, STRESS PERIOD      3
 UBDSV06 SAVING              RCH IN MODEL TEST_TRANS       PACKAGE TEST_TRANS      CONNECTED TO MODEL TEST_TRANS       PACKAGE RCHA             ON UNIT   1016 AT TIME STEP      9, STRESS PERIOD      3
 UBDSV06 SAVING              CHD IN MODEL TEST_TRANS       PACKAGE TEST_TRANS      CONNECTED TO MODEL TEST_TRANS       PACKAGE CHD              ON UNIT   1016 AT TIME STEP      9, STRESS PERIOD      3

 HEAD WILL BE SAVED ON UNIT 1017 AT END OF TIME STEP    9, STRESS PERIOD    3


  VOLUME BUDGET FOR ENTIRE MODEL AT END OF TIME STEP    9, STRESS PERIOD   3
  ---------------------------------------------------------------------------------------------------

     CUMULATIVE VOLUME      L**3       RATES FOR THIS TIME STEP      L**3/T          PACKAGE NAME    
     ------------------                 ------------------------                     ----------------

           IN:                                      IN:
           ---                                      ---
              STO-SS =           0.6847                STO-SS =       2.0256E-02     STORAGE         
              STO-SY =         412.6582                STO-SY =          12.1683     STORAGE         
                 RCH =       14611.2220                   RCH =         214.5203     RCHA            
                 CHD =           0.0000                   CHD =           0.0000     CHD             

            TOTAL IN =       15024.5649              TOTAL IN =         226.7088

          OUT:                                     OUT:
          ----                                     ----
              STO-SS =           2.6817                STO-SS =       2.0329E-03     STORAGE         
              STO-SY =        1727.7038                STO-SY =           1.4060     STORAGE         
                 RCH =           0.0000                   RCH =           0.0000     RCHA            
                 CHD =       13294.4177                   CHD =         225.3158     CHD             

           TOTAL OUT =       15024.8032             TOTAL OUT =         226.7238

            IN - OUT =          -0.2383              IN - OUT =      -1.4976E-02

 PERCENT DISCREPANCY =          -0.00     PERCENT DISCREPANCY =          -0.01




         TIME SUMMARY AT END OF TIME STEP    9 IN STRESS PERIOD    3
                    SECONDS     MINUTES      HOURS       DAYS        YEARS
                    -----------------------------------------------------------
   TIME STEP LENGTH 2.59200E+05  4320.0      72.000      3.0000     8.21355E-03
 STRESS PERIOD TIME 2.33280E+06  38880.      648.00      27.000     7.39220E-02
         TOTAL TIME 5.01120E+06  83520.      1392.0      58.000     0.15880    
 UBDSV1 SAVING           STO-SS ON UNIT   1016 AT TIME STEP     10, STRESS PERIOD      3
 UBDSV1 SAVING           STO-SY ON UNIT   1016 AT TIME STEP     10, STRESS PERIOD      3
 UBDSV1 SAVING     FLOW-JA-FACE ON UNIT   1016 AT TIME STEP     10, STRESS PERIOD      3
 UBDSV06 SAVING              RCH IN MODEL TEST_TRANS       PACKAGE TEST_TRANS      CONNECTED TO MODEL TEST_TRANS       PACKAGE RCHA             ON UNIT   1016 AT TIME STEP     10, STRESS PERIOD      3
 UBDSV06 SAVING              CHD IN MODEL TEST_TRANS       PACKAGE TEST_TRANS      CONNECTED TO MODEL TEST_TRANS       PACKAGE CHD              ON UNIT   1016 AT TIME STEP     10, STRESS PERIOD      3

 HEAD WILL BE SAVED ON UNIT 1017 AT END OF TIME STEP   10, STRESS PERIOD    3


  VOLUME BUDGET FOR ENTIRE MODEL AT END OF TIME STEP   10, STRESS PERIOD   3
  ---------------------------------------------------------------------------------------------------

     CUMULATIVE VOLUME      L**3       RATES FOR THIS TIME STEP      L**3/T          PACKAGE NAME    
     ------------------                 ------------------------                     ----------------

           IN:                                      IN:
           ---                                      ---
              STO-SS =           0.7438                STO-SS =       1.9709E-02     STORAGE         
              STO-SY =         448.2057                STO-SY =          11.8492     STORAGE         
                 RCH =       15254.7827                   RCH =         214.5203     RCHA            
                 CHD =           0.0000                   CHD =           0.0000     CHD             

            TOTAL IN =       15703.7323              TOTAL IN =         226.3891

          OUT:                                     OUT:
          ----                                     ----
              STO-SS =           2.6853                STO-SS =       1.1905E-03     STORAGE         
              STO-SY =        1730.1847                STO-SY =           0.8270     STORAGE         
                 RCH =           0.0000                   RCH =           0.0000     RCHA            
                 CHD =       13971.1248                   CHD =         225.5690     CHD             

           TOTAL OUT =       15703.9947             TOTAL OUT =         226.3972

            IN - OUT =          -0.2625              IN - OUT =      -8.0425E-03

 PERCENT DISCREPANCY =          -0.00     PERCENT DISCREPANCY =          -0.00




         TIME SUMMARY AT END OF TIME STEP   10 IN STRESS PERIOD    3
                    SECONDS     MINUTES      HOURS       DAYS        YEARS
                    -----------------------------------------------------------
   TIME STEP LENGTH 2.59200E+05  4320.0      72.000      3.0000     8.21355E-03
 STRESS PERIOD TIME 2.59200E+06  43200.      720.00      30.000     8.21355E-02
         TOTAL TIME 5.27040E+06  87840.      1464.0      61.000     0.16701    

 OUTPUT CONTROL FOR STRESS PERIOD 4 IS REPEATED USING SETTINGS FROM A PREVIOUS STRESS PERIOD.


 STRESS PERIOD 4 IS TRANSIENT


                 RECHARGE =  0.1643840E-02
 UBDSV1 SAVING           STO-SS ON UNIT   1016 AT TIME STEP      1, STRESS PERIOD      4
 UBDSV1 SAVING           STO-SY ON UNIT   1016 AT TIME STEP      1, STRESS PERIOD      4
 UBDSV1 SAVING     FLOW-JA-FACE ON UNIT   1016 AT TIME STEP      1, STRESS PERIOD      4
 UBDSV06 SAVING              RCH IN MODEL TEST_TRANS       PACKAGE TEST_TRANS      CONNECTED TO MODEL TEST_TRANS       PACKAGE RCHA             ON UNIT   1016 AT TIME STEP      1, STRESS PERIOD      4
 UBDSV06 SAVING              CHD IN MODEL TEST_TRANS       PACKAGE TEST_TRANS      CONNECTED TO MODEL TEST_TRANS       PACKAGE CHD              ON UNIT   1016 AT TIME STEP      1, STRESS PERIOD      4

 HEAD WILL BE SAVED ON UNIT 1017 AT END OF TIME STEP    1, STRESS PERIOD    4


  VOLUME BUDGET FOR ENTIRE MODEL AT END OF TIME STEP    1, STRESS PERIOD   4
  ---------------------------------------------------------------------------------------------------

     CUMULATIVE VOLUME      L**3       RATES FOR THIS TIME STEP      L**3/T          PACKAGE NAME    
     ------------------                 ------------------------                     ----------------

           IN:                                      IN:
           ---                                      ---
              STO-SS =           1.0617                STO-SS =           0.1059     STORAGE         
              STO-SY =         641.5006                STO-SY =          64.4316     STORAGE         
                 RCH =       15683.8250                   RCH =         143.0141     RCHA            
                 CHD =           0.0000                   CHD =           0.0000     CHD             

            TOTAL IN =       16326.3872              TOTAL IN =         207.5517

          OUT:                                     OUT:
          ----                                     ----
              STO-SS =           2.9753                STO-SS =       9.6661E-02     STORAGE         
              STO-SY =        1938.6112                STO-SY =          69.4755     STORAGE         
                 RCH =           0.0000                   RCH =           0.0000     RCHA            
                 CHD =       14385.0434                   CHD =         137.9729     CHD             

           TOTAL OUT =       16326.6299             TOTAL OUT =         207.5451

            IN - OUT =          -0.2427              IN - OUT =       6.6013E-03

 PERCENT DISCREPANCY =          -0.00     PERCENT DISCREPANCY =           0.00




         TIME SUMMARY AT END OF TIME STEP    1 IN STRESS PERIOD    4
                    SECONDS     MINUTES      HOURS       DAYS        YEARS
                    -----------------------------------------------------------
   TIME STEP LENGTH 2.59200E+05  4320.0      72.000      3.0000     8.21355E-03
 STRESS PERIOD TIME 2.59200E+05  4320.0      72.000      3.0000     8.21355E-03
         TOTAL TIME 5.52960E+06  92160.      1536.0      64.000     0.17522    
 UBDSV1 SAVING           STO-SS ON UNIT   1016 AT TIME STEP      2, STRESS PERIOD      4
 UBDSV1 SAVING           STO-SY ON UNIT   1016 AT TIME STEP      2, STRESS PERIOD      4
 UBDSV1 SAVING     FLOW-JA-FACE ON UNIT   1016 AT TIME STEP      2, STRESS PERIOD      4
 UBDSV06 SAVING              RCH IN MODEL TEST_TRANS       PACKAGE TEST_TRANS      CONNECTED TO MODEL TEST_TRANS       PACKAGE RCHA             ON UNIT   1016 AT TIME STEP      2, STRESS PERIOD      4
 UBDSV06 SAVING              CHD IN MODEL TEST_TRANS       PACKAGE TEST_TRANS      CONNECTED TO MODEL TEST_TRANS       PACKAGE CHD              ON UNIT   1016 AT TIME STEP      2, STRESS PERIOD      4

 HEAD WILL BE SAVED ON UNIT 1017 AT END OF TIME STEP    2, STRESS PERIOD    4


  VOLUME BUDGET FOR ENTIRE MODEL AT END OF TIME STEP    2, STRESS PERIOD   4
  ---------------------------------------------------------------------------------------------------

     CUMULATIVE VOLUME      L**3       RATES FOR THIS TIME STEP      L**3/T          PACKAGE NAME    
     ------------------                 ------------------------                     ----------------

           IN:                                      IN:
           ---                                      ---
              STO-SS =           1.3551                STO-SS =       9.7793E-02     STORAGE         
              STO-SY =         819.3916                STO-SY =          59.2970     STORAGE         
                 RCH =       16112.8672                   RCH =         143.0141     RCHA            
                 CHD =           0.0000                   CHD =           0.0000     CHD             

            TOTAL IN =       16933.6138              TOTAL IN =         202.4089

          OUT:                                     OUT:
          ----                                     ----
              STO-SS =           3.1225                STO-SS =       4.9080E-02     STORAGE         
              STO-SY =        2042.3638                STO-SY =          34.5842     STORAGE         
                 RCH =           0.0000                   RCH =           0.0000     RCHA            
                 CHD =       14888.3625                   CHD =         167.7730     CHD             

           TOTAL OUT =       16933.8488             TOTAL OUT =         202.4063

            IN - OUT =          -0.2349              IN - OUT =       2.5731E-03

 PERCENT DISCREPANCY =          -0.00     PERCENT DISCREPANCY =           0.00




         TIME SUMMARY AT END OF TIME STEP    2 IN STRESS PERIOD    4
                    SECONDS     MINUTES      HOURS       DAYS        YEARS
                    -----------------------------------------------------------
   TIME STEP LENGTH 2.59200E+05  4320.0      72.000      3.0000     8.21355E-03
 STRESS PERIOD TIME 5.18400E+05  8640.0      144.00      6.0000     1.64271E-02
         TOTAL TIME 5.78880E+06  96480.      1608.0      67.000     0.18344    
 UBDSV1 SAVING           STO-SS ON UNIT   1016 AT TIME STEP      3, STRESS PERIOD      4
 UBDSV1 SAVING           STO-SY ON UNIT   1016 AT TIME STEP      3, STRESS PERIOD      4
 UBDSV1 SAVING     FLOW-JA-FACE ON UNIT   1016 AT TIME STEP      3, STRESS PERIOD      4
 UBDSV06 SAVING              RCH IN MODEL TEST_TRANS       PACKAGE TEST_TRANS      CONNECTED TO MODEL TEST_TRANS       PACKAGE RCHA             ON UNIT   1016 AT TIME STEP      3, STRESS PERIOD      4
 UBDSV06 SAVING              CHD IN MODEL TEST_TRANS       PACKAGE TEST_TRANS      CONNECTED TO MODEL TEST_TRANS       PACKAGE CHD              ON UNIT   1016 AT TIME STEP      3, STRESS PERIOD      4

 HEAD WILL BE SAVED ON UNIT 1017 AT END OF TIME STEP    3, STRESS PERIOD    4


  VOLUME BUDGET FOR ENTIRE MODEL AT END OF TIME STEP    3, STRESS PERIOD   4
  ---------------------------------------------------------------------------------------------------

     CUMULATIVE VOLUME      L**3       RATES FOR THIS TIME STEP      L**3/T          PACKAGE NAME    
     ------------------                 ------------------------                     ----------------

           IN:                                      IN:
           ---                                      ---
              STO-SS =           1.6310                STO-SS =       9.1971E-02     STORAGE         
              STO-SY =         986.4933                STO-SY =          55.7006     STORAGE         
                 RCH =       16541.9094                   RCH =         143.0141     RCHA            
                 CHD =           0.0000                   CHD =           0.0000     CHD             

            TOTAL IN =       17530.0337              TOTAL IN =         198.8066

          OUT:                                     OUT:
          ----                                     ----
              STO-SS =           3.2079                STO-SS =       2.8440E-02     STORAGE         
              STO-SY =        2101.8451                STO-SY =          19.8271     STORAGE         
                 RCH =           0.0000                   RCH =           0.0000     RCHA            
                 CHD =       15425.2089                   CHD =         178.9488     CHD             

           TOTAL OUT =       17530.2618             TOTAL OUT =         198.8044

            IN - OUT =          -0.2282              IN - OUT =       2.2611E-03

 PERCENT DISCREPANCY =          -0.00     PERCENT DISCREPANCY =           0.00




         TIME SUMMARY AT END OF TIME STEP    3 IN STRESS PERIOD    4
                    SECONDS     MINUTES      HOURS       DAYS        YEARS
                    -----------------------------------------------------------
   TIME STEP LENGTH 2.59200E+05  4320.0      72.000      3.0000     8.21355E-03
 STRESS PERIOD TIME 7.77600E+05  12960.      216.00      9.0000     2.46407E-02
         TOTAL TIME 6.04800E+06 1.00800E+05  1680.0      70.000     0.19165    
 UBDSV1 SAVING           STO-SS ON UNIT   1016 AT TIME STEP      4, STRESS PERIOD      4
 UBDSV1 SAVING           STO-SY ON UNIT   1016 AT TIME STEP      4, STRESS PERIOD      4
 UBDSV1 SAVING     FLOW-JA-FACE ON UNIT   1016 AT TIME STEP      4, STRESS PERIOD      4
 UBDSV06 SAVING              RCH IN MODEL TEST_TRANS       PACKAGE TEST_TRANS      CONNECTED TO MODEL TEST_TRANS       PACKAGE RCHA             ON UNIT   1016 AT TIME STEP      4, STRESS PERIOD      4
 UBDSV06 SAVING              CHD IN MODEL TEST_TRANS       PACKAGE TEST_TRANS      CONNECTED TO MODEL TEST_TRANS       PACKAGE CHD              ON UNIT   1016 AT TIME STEP      4, STRESS PERIOD      4

 HEAD WILL BE SAVED ON UNIT 1017 AT END OF TIME STEP    4, STRESS PERIOD    4


  VOLUME BUDGET FOR ENTIRE MODEL AT END OF TIME STEP    4, STRESS PERIOD   4
  ---------------------------------------------------------------------------------------------------

     CUMULATIVE VOLUME      L**3       RATES FOR THIS TIME STEP      L**3/T          PACKAGE NAME    
     ------------------                 ------------------------                     ----------------

[...]
  ---------------------------------------------------------------------------------------------------

     CUMULATIVE VOLUME      L**3       RATES FOR THIS TIME STEP      L**3/T          PACKAGE NAME    
     ------------------                 ------------------------                     ----------------

           IN:                                      IN:
           ---                                      ---
              STO-SS =          76.9491                STO-SS =       4.5525E-03     STORAGE         
              STO-SY =       49238.8721                STO-SY =           3.2049     STORAGE         
                 RCH =      287338.4793                   RCH =         238.3565     RCHA            
                 CHD =         400.5133                   CHD =           0.0000     CHD             

            TOTAL IN =      337054.8139              TOTAL IN =         241.5660

          OUT:                                     OUT:
          ----                                     ----
              STO-SS =          69.6587                STO-SS =       7.8149E-02     STORAGE         
              STO-SY =       44870.2837                STO-SY =          48.6165     STORAGE         
                 RCH =           0.0000                   RCH =           0.0000     RCHA            
                 CHD =      292117.1220                   CHD =         192.8728     CHD             

           TOTAL OUT =      337057.0644             TOTAL OUT =         241.5675

            IN - OUT =          -2.2505              IN - OUT =      -1.5346E-03

 PERCENT DISCREPANCY =          -0.00     PERCENT DISCREPANCY =          -0.00




         TIME SUMMARY AT END OF TIME STEP    4 IN STRESS PERIOD   60
                    SECONDS     MINUTES      HOURS       DAYS        YEARS
                    -----------------------------------------------------------
   TIME STEP LENGTH 2.59200E+05  4320.0      72.000      3.0000     8.21355E-03
 STRESS PERIOD TIME 1.03680E+06  17280.      288.00      12.000     3.28542E-02
         TOTAL TIME 1.51459E+08 2.52432E+06  42072.      1753.0      4.7995    
 UBDSV1 SAVING           STO-SS ON UNIT   1016 AT TIME STEP      5, STRESS PERIOD     60
 UBDSV1 SAVING           STO-SY ON UNIT   1016 AT TIME STEP      5, STRESS PERIOD     60
 UBDSV1 SAVING     FLOW-JA-FACE ON UNIT   1016 AT TIME STEP      5, STRESS PERIOD     60
 UBDSV06 SAVING              RCH IN MODEL TEST_TRANS       PACKAGE TEST_TRANS      CONNECTED TO MODEL TEST_TRANS       PACKAGE RCHA             ON UNIT   1016 AT TIME STEP      5, STRESS PERIOD     60
 UBDSV06 SAVING              CHD IN MODEL TEST_TRANS       PACKAGE TEST_TRANS      CONNECTED TO MODEL TEST_TRANS       PACKAGE CHD              ON UNIT   1016 AT TIME STEP      5, STRESS PERIOD     60

 HEAD WILL BE SAVED ON UNIT 1017 AT END OF TIME STEP    5, STRESS PERIOD   60


  VOLUME BUDGET FOR ENTIRE MODEL AT END OF TIME STEP    5, STRESS PERIOD  60
  ---------------------------------------------------------------------------------------------------

     CUMULATIVE VOLUME      L**3       RATES FOR THIS TIME STEP      L**3/T          PACKAGE NAME    
     ------------------                 ------------------------                     ----------------

           IN:                                      IN:
           ---                                      ---
              STO-SS =          76.9547                STO-SS =       1.8714E-03     STORAGE         
              STO-SY =       49242.8388                STO-SY =           1.3222     STORAGE         
                 RCH =      288053.5489                   RCH =         238.3565     RCHA            
                 CHD =         400.5133                   CHD =           0.0000     CHD             

            TOTAL IN =      337773.8557              TOTAL IN =         239.6806

          OUT:                                     OUT:
          ----                                     ----
              STO-SS =          69.8882                STO-SS =       7.6496E-02     STORAGE         
              STO-SY =       45012.9828                STO-SY =          47.5663     STORAGE         
                 RCH =           0.0000                   RCH =           0.0000     RCHA            
                 CHD =      292693.2411                   CHD =         192.0397     CHD             

           TOTAL OUT =      337776.1120             TOTAL OUT =         239.6825

            IN - OUT =          -2.2563              IN - OUT =      -1.9095E-03

 PERCENT DISCREPANCY =          -0.00     PERCENT DISCREPANCY =          -0.00




         TIME SUMMARY AT END OF TIME STEP    5 IN STRESS PERIOD   60
                    SECONDS     MINUTES      HOURS       DAYS        YEARS
                    -----------------------------------------------------------
   TIME STEP LENGTH 2.59200E+05  4320.0      72.000      3.0000     8.21355E-03
 STRESS PERIOD TIME 1.29600E+06  21600.      360.00      15.000     4.10678E-02
         TOTAL TIME 1.51718E+08 2.52864E+06  42144.      1756.0      4.8077    
 UBDSV1 SAVING           STO-SS ON UNIT   1016 AT TIME STEP      6, STRESS PERIOD     60
 UBDSV1 SAVING           STO-SY ON UNIT   1016 AT TIME STEP      6, STRESS PERIOD     60
 UBDSV1 SAVING     FLOW-JA-FACE ON UNIT   1016 AT TIME STEP      6, STRESS PERIOD     60
 UBDSV06 SAVING              RCH IN MODEL TEST_TRANS       PACKAGE TEST_TRANS      CONNECTED TO MODEL TEST_TRANS       PACKAGE RCHA             ON UNIT   1016 AT TIME STEP      6, STRESS PERIOD     60
 UBDSV06 SAVING              CHD IN MODEL TEST_TRANS       PACKAGE TEST_TRANS      CONNECTED TO MODEL TEST_TRANS       PACKAGE CHD              ON UNIT   1016 AT TIME STEP      6, STRESS PERIOD     60

 HEAD WILL BE SAVED ON UNIT 1017 AT END OF TIME STEP    6, STRESS PERIOD   60


  VOLUME BUDGET FOR ENTIRE MODEL AT END OF TIME STEP    6, STRESS PERIOD  60
  ---------------------------------------------------------------------------------------------------

     CUMULATIVE VOLUME      L**3       RATES FOR THIS TIME STEP      L**3/T          PACKAGE NAME    
     ------------------                 ------------------------                     ----------------

           IN:                                      IN:
           ---                                      ---
              STO-SS =          76.9562                STO-SS =       4.8277E-04     STORAGE         
              STO-SY =       49243.8716                STO-SY =           0.3443     STORAGE         
                 RCH =      288768.6184                   RCH =         238.3565     RCHA            
                 CHD =         400.5133                   CHD =           0.0000     CHD             

            TOTAL IN =      338489.9595              TOTAL IN =         238.7013

          OUT:                                     OUT:
          ----                                     ----
              STO-SS =          70.1144                STO-SS =       7.5428E-02     STORAGE         
              STO-SY =       45153.7019                STO-SY =          46.9064     STORAGE         
                 RCH =           0.0000                   RCH =           0.0000     RCHA            
                 CHD =      293268.4060                   CHD =         191.7216     CHD             

           TOTAL OUT =      338492.2223             TOTAL OUT =         238.7034

            IN - OUT =          -2.2628              IN - OUT =      -2.1936E-03

 PERCENT DISCREPANCY =          -0.00     PERCENT DISCREPANCY =          -0.00




         TIME SUMMARY AT END OF TIME STEP    6 IN STRESS PERIOD   60
                    SECONDS     MINUTES      HOURS       DAYS        YEARS
                    -----------------------------------------------------------
   TIME STEP LENGTH 2.59200E+05  4320.0      72.000      3.0000     8.21355E-03
 STRESS PERIOD TIME 1.55520E+06  25920.      432.00      18.000     4.92813E-02
         TOTAL TIME 1.51978E+08 2.53296E+06  42216.      1759.0      4.8159    
 UBDSV1 SAVING           STO-SS ON UNIT   1016 AT TIME STEP      7, STRESS PERIOD     60
 UBDSV1 SAVING           STO-SY ON UNIT   1016 AT TIME STEP      7, STRESS PERIOD     60
 UBDSV1 SAVING     FLOW-JA-FACE ON UNIT   1016 AT TIME STEP      7, STRESS PERIOD     60
 UBDSV06 SAVING              RCH IN MODEL TEST_TRANS       PACKAGE TEST_TRANS      CONNECTED TO MODEL TEST_TRANS       PACKAGE RCHA             ON UNIT   1016 AT TIME STEP      7, STRESS PERIOD     60
 UBDSV06 SAVING              CHD IN MODEL TEST_TRANS       PACKAGE TEST_TRANS      CONNECTED TO MODEL TEST_TRANS       PACKAGE CHD              ON UNIT   1016 AT TIME STEP      7, STRESS PERIOD     60

 HEAD WILL BE SAVED ON UNIT 1017 AT END OF TIME STEP    7, STRESS PERIOD   60


  VOLUME BUDGET FOR ENTIRE MODEL AT END OF TIME STEP    7, STRESS PERIOD  60
  ---------------------------------------------------------------------------------------------------

     CUMULATIVE VOLUME      L**3       RATES FOR THIS TIME STEP      L**3/T          PACKAGE NAME    
     ------------------                 ------------------------                     ----------------

           IN:                                      IN:
           ---                                      ---
              STO-SS =          76.9562                STO-SS =       9.0232E-06     STORAGE         
              STO-SY =       49243.8913                STO-SY =       6.5602E-03     STORAGE         
                 RCH =      289483.6879                   RCH =         238.3565     RCHA            
                 CHD =         400.5133                   CHD =           0.0000     CHD             

            TOTAL IN =      339205.0487              TOTAL IN =         238.3631

          OUT:                                     OUT:
          ----                                     ----
              STO-SS =          70.3390                STO-SS =       7.4863E-02     STORAGE         
              STO-SY =       45293.4650                STO-SY =          46.5877     STORAGE         
                 RCH =           0.0000                   RCH =           0.0000     RCHA            
                 CHD =      293843.5147                   CHD =         191.7029     CHD             

           TOTAL OUT =      339207.3187             TOTAL OUT =         238.3654

            IN - OUT =          -2.2700              IN - OUT =      -2.3699E-03

 PERCENT DISCREPANCY =          -0.00     PERCENT DISCREPANCY =          -0.00




         TIME SUMMARY AT END OF TIME STEP    7 IN STRESS PERIOD   60
                    SECONDS     MINUTES      HOURS       DAYS        YEARS
                    -----------------------------------------------------------
   TIME STEP LENGTH 2.59200E+05  4320.0      72.000      3.0000     8.21355E-03
 STRESS PERIOD TIME 1.81440E+06  30240.      504.00      21.000     5.74949E-02
         TOTAL TIME 1.52237E+08 2.53728E+06  42288.      1762.0      4.8241    
 UBDSV1 SAVING           STO-SS ON UNIT   1016 AT TIME STEP      8, STRESS PERIOD     60
 UBDSV1 SAVING           STO-SY ON UNIT   1016 AT TIME STEP      8, STRESS PERIOD     60
 UBDSV1 SAVING     FLOW-JA-FACE ON UNIT   1016 AT TIME STEP      8, STRESS PERIOD     60
 UBDSV06 SAVING              RCH IN MODEL TEST_TRANS       PACKAGE TEST_TRANS      CONNECTED TO MODEL TEST_TRANS       PACKAGE RCHA             ON UNIT   1016 AT TIME STEP      8, STRESS PERIOD     60
 UBDSV06 SAVING              CHD IN MODEL TEST_TRANS       PACKAGE TEST_TRANS      CONNECTED TO MODEL TEST_TRANS       PACKAGE CHD              ON UNIT   1016 AT TIME STEP      8, STRESS PERIOD     60

 HEAD WILL BE SAVED ON UNIT 1017 AT END OF TIME STEP    8, STRESS PERIOD   60


  VOLUME BUDGET FOR ENTIRE MODEL AT END OF TIME STEP    8, STRESS PERIOD  60
  ---------------------------------------------------------------------------------------------------

     CUMULATIVE VOLUME      L**3       RATES FOR THIS TIME STEP      L**3/T          PACKAGE NAME    
     ------------------                 ------------------------                     ----------------

           IN:                                      IN:
           ---                                      ---
              STO-SS =          76.9562                STO-SS =           0.0000     STORAGE         
              STO-SY =       49243.8913                STO-SY =           0.0000     STORAGE         
                 RCH =      290198.7575                   RCH =         238.3565     RCHA            
                 CHD =         400.5133                   CHD =           0.0000     CHD             

            TOTAL IN =      339920.1182              TOTAL IN =         238.3565

          OUT:                                     OUT:
          ----                                     ----
              STO-SS =          70.5626                STO-SS =       7.4531E-02     STORAGE         
              STO-SY =       45432.7546                STO-SY =          46.4299     STORAGE         
                 RCH =           0.0000                   RCH =           0.0000     RCHA            
                 CHD =      294419.1364                   CHD =         191.8739     CHD             

           TOTAL OUT =      339922.4536             TOTAL OUT =         238.3783

            IN - OUT =          -2.3354              IN - OUT =      -2.1812E-02

 PERCENT DISCREPANCY =          -0.00     PERCENT DISCREPANCY =          -0.01




         TIME SUMMARY AT END OF TIME STEP    8 IN STRESS PERIOD   60
                    SECONDS     MINUTES      HOURS       DAYS        YEARS
                    -----------------------------------------------------------
   TIME STEP LENGTH 2.59200E+05  4320.0      72.000      3.0000     8.21355E-03
 STRESS PERIOD TIME 2.07360E+06  34560.      576.00      24.000     6.57084E-02
         TOTAL TIME 1.52496E+08 2.54160E+06  42360.      1765.0      4.8323    
 UBDSV1 SAVING           STO-SS ON UNIT   1016 AT TIME STEP      9, STRESS PERIOD     60
 UBDSV1 SAVING           STO-SY ON UNIT   1016 AT TIME STEP      9, STRESS PERIOD     60
 UBDSV1 SAVING     FLOW-JA-FACE ON UNIT   1016 AT TIME STEP      9, STRESS PERIOD     60
 UBDSV06 SAVING              RCH IN MODEL TEST_TRANS       PACKAGE TEST_TRANS      CONNECTED TO MODEL TEST_TRANS       PACKAGE RCHA             ON UNIT   1016 AT TIME STEP      9, STRESS PERIOD     60
 UBDSV06 SAVING              CHD IN MODEL TEST_TRANS       PACKAGE TEST_TRANS      CONNECTED TO MODEL TEST_TRANS       PACKAGE CHD              ON UNIT   1016 AT TIME STEP      9, STRESS PERIOD     60

 HEAD WILL BE SAVED ON UNIT 1017 AT END OF TIME STEP    9, STRESS PERIOD   60


  VOLUME BUDGET FOR ENTIRE MODEL AT END OF TIME STEP    9, STRESS PERIOD  60
  ---------------------------------------------------------------------------------------------------

     CUMULATIVE VOLUME      L**3       RATES FOR THIS TIME STEP      L**3/T          PACKAGE NAME    
     ------------------                 ------------------------                     ----------------

           IN:                                      IN:
           ---                                      ---
              STO-SS =          76.9562                STO-SS =           0.0000     STORAGE         
              STO-SY =       49243.8913                STO-SY =           0.0000     STORAGE         
                 RCH =      290913.8270                   RCH =         238.3565     RCHA            
                 CHD =         400.5133                   CHD =           0.0000     CHD             

            TOTAL IN =      340635.1878              TOTAL IN =         238.3565

          OUT:                                     OUT:
          ----                                     ----
              STO-SS =          70.7846                STO-SS =       7.4006E-02     STORAGE         
              STO-SY =       45571.1592                STO-SY =          46.1348     STORAGE         
                 RCH =           0.0000                   RCH =           0.0000     RCHA            
                 CHD =      294995.6601                   CHD =         192.1746     CHD             

           TOTAL OUT =      340637.6039             TOTAL OUT =         238.3834

            IN - OUT =          -2.4161              IN - OUT =      -2.6913E-02

 PERCENT DISCREPANCY =          -0.00     PERCENT DISCREPANCY =          -0.01




         TIME SUMMARY AT END OF TIME STEP    9 IN STRESS PERIOD   60
                    SECONDS     MINUTES      HOURS       DAYS        YEARS
                    -----------------------------------------------------------
   TIME STEP LENGTH 2.59200E+05  4320.0      72.000      3.0000     8.21355E-03
 STRESS PERIOD TIME 2.33280E+06  38880.      648.00      27.000     7.39220E-02
         TOTAL TIME 1.52755E+08 2.54592E+06  42432.      1768.0      4.8405    
 UBDSV1 SAVING           STO-SS ON UNIT   1016 AT TIME STEP     10, STRESS PERIOD     60
 UBDSV1 SAVING           STO-SY ON UNIT   1016 AT TIME STEP     10, STRESS PERIOD     60
 UBDSV1 SAVING     FLOW-JA-FACE ON UNIT   1016 AT TIME STEP     10, STRESS PERIOD     60
 UBDSV06 SAVING              RCH IN MODEL TEST_TRANS       PACKAGE TEST_TRANS      CONNECTED TO MODEL TEST_TRANS       PACKAGE RCHA             ON UNIT   1016 AT TIME STEP     10, STRESS PERIOD     60
 UBDSV06 SAVING              CHD IN MODEL TEST_TRANS       PACKAGE TEST_TRANS      CONNECTED TO MODEL TEST_TRANS       PACKAGE CHD              ON UNIT   1016 AT TIME STEP     10, STRESS PERIOD     60

 HEAD WILL BE SAVED ON UNIT 1017 AT END OF TIME STEP   10, STRESS PERIOD   60


  VOLUME BUDGET FOR ENTIRE MODEL AT END OF TIME STEP   10, STRESS PERIOD  60
  ---------------------------------------------------------------------------------------------------

     CUMULATIVE VOLUME      L**3       RATES FOR THIS TIME STEP      L**3/T          PACKAGE NAME    
     ------------------                 ------------------------                     ----------------

           IN:                                      IN:
           ---                                      ---
              STO-SS =          76.9562                STO-SS =           0.0000     STORAGE         
              STO-SY =       49243.8913                STO-SY =           0.0000     STORAGE         
                 RCH =      291628.8965                   RCH =         238.3565     RCHA            
                 CHD =         400.5133                   CHD =           0.0000     CHD             

            TOTAL IN =      341350.2573              TOTAL IN =         238.3565

          OUT:                                     OUT:
          ----                                     ----
              STO-SS =          71.0047                STO-SS =       7.3358E-02     STORAGE         
              STO-SY =       45708.4125                STO-SY =          45.7511     STORAGE         
                 RCH =           0.0000                   RCH =           0.0000     RCHA            
                 CHD =      295573.3493                   CHD =         192.5631     CHD             

           TOTAL OUT =      341352.7665             TOTAL OUT =         238.3875

            IN - OUT =          -2.5092              IN - OUT =      -3.1026E-02

 PERCENT DISCREPANCY =          -0.00     PERCENT DISCREPANCY =          -0.01




         TIME SUMMARY AT END OF TIME STEP   10 IN STRESS PERIOD   60
                    SECONDS     MINUTES      HOURS       DAYS        YEARS
                    -----------------------------------------------------------
   TIME STEP LENGTH 2.59200E+05  4320.0      72.000      3.0000     8.21355E-03
 STRESS PERIOD TIME 2.59200E+06  43200.      720.00      30.000     8.21355E-02
         TOTAL TIME 1.53014E+08 2.55024E+06  42504.      1771.0      4.8487    
