                                   MODFLOW 6
                U.S. GEOLOGICAL SURVEY MODULAR HYDROLOGIC MODEL
                          GROUNDWATER FLOW MODEL (GWF)
                            VERSION 6.0.4 03/13/2019

   MODFLOW 6 compiled Mar 21 2019 15:37:31 with IFORT compiler (ver. 19.0.0)

This software has been approved for release by the U.S. Geological 
Survey (USGS). Although the software has been subjected to rigorous 
review, the USGS reserves the right to update the software as needed 
pursuant to further analysis and review. No warranty, expressed or 
implied, is made by the USGS or the U.S. Government as to the 
functionality of the software and related material nor shall the 
fact of release constitute any such warranty. Furthermore, the 
software is released on condition that neither the USGS nor the U.S. 
Government shall be held liable for any damages resulting from its 
authorized or unauthorized use. Also refer to the USGS Water 
Resources Software User Rights Notice for complete use, copyright, 
and distribution information.


MODFLOW was compiled using uniform precision.
Precision of REAL variables: 15


 OPENED test_mf6_pst.dis
 FILE TYPE:DIS6                   UNIT 1005   STATUS:OLD                 
 FORMAT:FORMATTED              ACCESS:SEQUENTIAL          
 ACTION:READ                


 OPENED test_mf6_pst.ic
 FILE TYPE:IC6                    UNIT 1006   STATUS:OLD                 
 FORMAT:FORMATTED              ACCESS:SEQUENTIAL          
 ACTION:READ                


 OPENED test_mf6_pst.oc
 FILE TYPE:OC6                    UNIT 1007   STATUS:OLD                 
 FORMAT:FORMATTED              ACCESS:SEQUENTIAL          
 ACTION:READ                


 OPENED test_mf6_pst.npf
 FILE TYPE:NPF6                   UNIT 1008   STATUS:OLD                 
 FORMAT:FORMATTED              ACCESS:SEQUENTIAL          
 ACTION:READ                


 OPENED bc.chd
 FILE TYPE:CHD6                   UNIT 1009   STATUS:OLD                 
 FORMAT:FORMATTED              ACCESS:SEQUENTIAL          
 ACTION:READ                


 OPENED test_mf6_pst.obs
 FILE TYPE:OBS6                   UNIT 1010   STATUS:OLD                 
 FORMAT:FORMATTED              ACCESS:SEQUENTIAL          
 ACTION:READ                


 DIS -- STRUCTURED GRID DISCRETIZATION PACKAGE, VERSION 2 : 3/27/2014 - INPUT READ FROM UNIT 1005


 PROCESSING DISCRETIZATION OPTIONS
 END OF DISCRETIZATION OPTIONS
 MODEL LENGTH UNIT IS UNDEFINED
 PROCESSING DISCRETIZATION DIMENSIONS
    NLAY =       1
    NROW =      10
    NCOL =      10
 END OF DISCRETIZATION DIMENSIONS
 PROCESSING GRIDDATA

                     DELR =   10.00000    

                     DELC =   10.00000    

 TOP ELEVATION OF LAYER 1 =   10.00000    

   MODEL LAYER BOTTOM EL. =   0.000000    
 END PROCESSING GRIDDATA

 NPF -- NODE PROPERTY FLOW PACKAGE, VERSION 1, 3/30/2015 INPUT READ FROM UNIT 1008


 PROCESSING NPF OPTIONS
    CELL-BY-CELL FLOW INFORMATION WILL BE SAVED TO BINARY FILE WHENEVER ICBCFL IS NOT ZERO.
 END OF NPF OPTIONS

 CHD   -- CHD PACKAGE, VERSION 8, 2/22/2014 INPUT READ FROM UNIT 1009

 PROCESSING CHD OPTIONS
    FLOWS WILL BE SAVED TO BUDGET FILE SPECIFIED IN OUTPUT CONTROL
 END OF CHD OPTIONS

 PROCESSING CHD DIMENSIONS
    MAXBOUND =      20
 END OF CHD DIMENSIONS

 IC -- INITIAL CONDITIONS PACKAGE, VERSION 8, 3/28/2015 INPUT READ FROM UNIT 1006
 PROCESSING GRIDDATA

     INITIAL HEAD =   1.000000    
 END PROCESSING GRIDDATA
 PROCESSING GRIDDATA

                ICELLTYPE = 0

 OPENED k.txt
 FILE TYPE:OPEN/CLOSE   UNIT 1012   STATUS:OLD                 
 FORMAT:FORMATTED              ACCESS:SEQUENTIAL          
 ACTION:READ                

 K33 not provided.  Assuming K33 = K.
 K22 not provided.  Assuming K22 = K.
 END PROCESSING GRIDDATA

The observation utility is active for "TEST_MF6_PST"

Processing observation options:

Text output number of digits of precision set to: 10
The PRINT_INPUT option has been specified.


Observations read from file "test_mf6_pst.obs":
Name                                      Type                             Time         Location data
----------------------------------------  -------------------------------  -----------  --------------------------
0_1_1                                     Continuous HEAD                  All times    "1 2 2"
0_1_2                                     Continuous HEAD                  All times    "1 2 3"
0_1_3                                     Continuous HEAD                  All times    "1 2 4"
0_1_4                                     Continuous HEAD                  All times    "1 2 5"
0_1_5                                     Continuous HEAD                  All times    "1 2 6"
0_1_6                                     Continuous HEAD                  All times    "1 2 7"
0_1_7                                     Continuous HEAD                  All times    "1 2 8"
0_1_8                                     Continuous HEAD                  All times    "1 2 9"
0_2_1                                     Continuous HEAD                  All times    "1 3 2"
0_2_2                                     Continuous HEAD                  All times    "1 3 3"
0_2_3                                     Continuous HEAD                  All times    "1 3 4"
0_2_4                                     Continuous HEAD                  All times    "1 3 5"
0_2_5                                     Continuous HEAD                  All times    "1 3 6"
0_2_6                                     Continuous HEAD                  All times    "1 3 7"
0_2_7                                     Continuous HEAD                  All times    "1 3 8"
0_2_8                                     Continuous HEAD                  All times    "1 3 9"
0_3_1                                     Continuous HEAD                  All times    "1 4 2"
0_3_2                                     Continuous HEAD                  All times    "1 4 3"
0_3_3                                     Continuous HEAD                  All times    "1 4 4"
0_3_4                                     Continuous HEAD                  All times    "1 4 5"
0_3_5                                     Continuous HEAD                  All times    "1 4 6"
0_3_6                                     Continuous HEAD                  All times    "1 4 7"
0_3_7                                     Continuous HEAD                  All times    "1 4 8"
0_3_8                                     Continuous HEAD                  All times    "1 4 9"
0_4_1                                     Continuous HEAD                  All times    "1 5 2"
0_4_2                                     Continuous HEAD                  All times    "1 5 3"
0_4_3                                     Continuous HEAD                  All times    "1 5 4"
0_4_4                                     Continuous HEAD                  All times    "1 5 5"
0_4_5                                     Continuous HEAD                  All times    "1 5 6"
0_4_6                                     Continuous HEAD                  All times    "1 5 7"
0_4_7                                     Continuous HEAD                  All times    "1 5 8"
0_4_8                                     Continuous HEAD                  All times    "1 5 9"
0_5_1                                     Continuous HEAD                  All times    "1 6 2"
0_5_2                                     Continuous HEAD                  All times    "1 6 3"
0_5_3                                     Continuous HEAD                  All times    "1 6 4"
0_5_4                                     Continuous HEAD                  All times    "1 6 5"
0_5_5                                     Continuous HEAD                  All times    "1 6 6"
0_5_6                                     Continuous HEAD                  All times    "1 6 7"
0_5_7                                     Continuous HEAD                  All times    "1 6 8"
0_5_8                                     Continuous HEAD                  All times    "1 6 9"
0_6_1                                     Continuous HEAD                  All times    "1 7 2"
0_6_2                                     Continuous HEAD                  All times    "1 7 3"
0_6_3                                     Continuous HEAD                  All times    "1 7 4"
0_6_4                                     Continuous HEAD                  All times    "1 7 5"
0_6_5                                     Continuous HEAD                  All times    "1 7 6"
0_6_6                                     Continuous HEAD                  All times    "1 7 7"
0_6_7                                     Continuous HEAD                  All times    "1 7 8"
0_6_8                                     Continuous HEAD                  All times    "1 7 9"
0_7_1                                     Continuous HEAD                  All times    "1 8 2"
0_7_2                                     Continuous HEAD                  All times    "1 8 3"
0_7_3                                     Continuous HEAD                  All times    "1 8 4"
0_7_4                                     Continuous HEAD                  All times    "1 8 5"
0_7_5                                     Continuous HEAD                  All times    "1 8 6"
0_7_6                                     Continuous HEAD                  All times    "1 8 7"
0_7_7                                     Continuous HEAD                  All times    "1 8 8"
0_7_8                                     Continuous HEAD                  All times    "1 8 9"
0_8_1                                     Continuous HEAD                  All times    "1 9 2"
0_8_2                                     Continuous HEAD                  All times    "1 9 3"
0_8_3                                     Continuous HEAD                  All times    "1 9 4"
0_8_4                                     Continuous HEAD                  All times    "1 9 5"
0_8_5                                     Continuous HEAD                  All times    "1 9 6"
0_8_6                                     Continuous HEAD                  All times    "1 9 7"
0_8_7                                     Continuous HEAD                  All times    "1 9 8"
0_8_8                                     Continuous HEAD                  All times    "1 9 9"
    BINARY GRID INFORMATION WILL BE WRITTEN TO:
      UNIT NUMBER: 1014
      FILE NAME: C:\Users\emmal\Documents\GitHub\TM_Ludovic_Schorpp\codes_tests\notebooks_essais\mf6_pest_1\template\test_mf6_pst.dis.grb

 OPENED C:\Users\emmal\Documents\GitHub\TM_Ludovic_Schorpp\codes_tests\notebooks_essais\mf6_pest_1\template\test_mf6_pst.dis.grb
 FILE TYPE:DATA(BINARY)   UNIT 1014   STATUS:REPLACE             
 FORMAT:UNFORMATTED            ACCESS:STREAM              
 ACTION:READWRITE           

      THE LAST TIME STEP WILL BE PRINTED
      THE LAST TIME STEP WILL BE PRINTED
 PROCESSING OC OPTIONS
    BUDGET INFORMATION WILL BE WRITTEN TO:
      UNIT NUMBER: 1015
      FILE NAME: test_mf6_pst.cbc

 OPENED test_mf6_pst.cbc
 FILE TYPE:DATA(BINARY)   UNIT 1015   STATUS:REPLACE             
 FORMAT:UNFORMATTED            ACCESS:STREAM              
 ACTION:READWRITE           

    HEAD INFORMATION WILL BE WRITTEN TO:
      UNIT NUMBER: 1016
      FILE NAME: test_mf6_pst.hds

 OPENED test_mf6_pst.hds
 FILE TYPE:DATA(BINARY)   UNIT 1016   STATUS:REPLACE             
 FORMAT:UNFORMATTED            ACCESS:STREAM              
 ACTION:READWRITE           

 END OF OC OPTIONS

 BEGIN READING OUTPUT CONTROL FOR STRESS PERIOD 1
      THE LAST TIME STEP WILL BE SAVED
      THE LAST TIME STEP WILL BE SAVED
      ALL TIME STEPS WILL BE PRINTED

 END READING OUTPUT CONTROL FOR STRESS PERIOD 1
 UBDSV1 SAVING     FLOW-JA-FACE ON UNIT   1015 AT TIME STEP      1, STRESS PERIOD      1
 UBDSV06 SAVING              CHD IN MODEL TEST_MF6_PST     PACKAGE TEST_MF6_PST    CONNECTED TO MODEL TEST_MF6_PST     PACKAGE CHD              ON UNIT   1015 AT TIME STEP      1, STRESS PERIOD      1
1
  HEAD IN LAYER   1 AT END OF TIME STEP   1 IN STRESS PERIOD    1
  ---------------------------------------------------------------------------

            1           2           3           4           5           6           7           8           9          10
 ........................................................................................................................
   1    10.00       8.889       7.778       6.667       5.556       4.444       3.333       2.222       1.111       0.000    
   2    10.00       8.889       7.778       6.667       5.556       4.444       3.333       2.222       1.111       0.000    
   3    10.00       8.889       7.778       6.667       5.556       4.444       3.333       2.222       1.111       0.000    
   4    10.00       8.889       7.778       6.667       5.556       4.444       3.333       2.222       1.111       0.000    
   5    10.00       8.889       7.778       6.667       5.556       4.444       3.333       2.222       1.111       0.000    
   6    10.00       8.889       7.778       6.667       5.556       4.444       3.333       2.222       1.111       0.000    
   7    10.00       8.889       7.778       6.667       5.556       4.444       3.333       2.222       1.111       0.000    
   8    10.00       8.889       7.778       6.667       5.556       4.444       3.333       2.222       1.111       0.000    
   9    10.00       8.889       7.778       6.667       5.556       4.444       3.333       2.222       1.111       0.000    
  10    10.00       8.889       7.778       6.667       5.555       4.444       3.333       2.222       1.111       0.000    

 HEAD WILL BE SAVED ON UNIT 1016 AT END OF TIME STEP    1, STRESS PERIOD    1


  VOLUME BUDGET FOR ENTIRE MODEL AT END OF TIME STEP    1, STRESS PERIOD   1
  ---------------------------------------------------------------------------------------------------

     CUMULATIVE VOLUME      L**3       RATES FOR THIS TIME STEP      L**3/T          PACKAGE NAME    
     ------------------                 ------------------------                     ----------------

           IN:                                      IN:
           ---                                      ---
                 CHD =           1.1111                   CHD =           1.1111     CHD             

            TOTAL IN =           1.1111              TOTAL IN =           1.1111

          OUT:                                     OUT:
          ----                                     ----
                 CHD =           1.1111                   CHD =           1.1111     CHD             

           TOTAL OUT =           1.1111             TOTAL OUT =           1.1111

            IN - OUT =       5.3543E-06              IN - OUT =       5.3543E-06

 PERCENT DISCREPANCY =           0.00     PERCENT DISCREPANCY =           0.00




         TIME SUMMARY AT END OF TIME STEP    1 IN STRESS PERIOD    1
                    SECONDS     MINUTES      HOURS       DAYS        YEARS
                    -----------------------------------------------------------
   TIME STEP LENGTH  1.0000     1.66667E-02 2.77778E-04 1.15741E-05 3.16881E-08
 STRESS PERIOD TIME  1.0000     1.66667E-02 2.77778E-04 1.15741E-05 3.16881E-08
         TOTAL TIME  1.0000     1.66667E-02 2.77778E-04 1.15741E-05 3.16881E-08
