                                   MODFLOW 6
                U.S. GEOLOGICAL SURVEY MODULAR HYDROLOGIC MODEL
                          GROUNDWATER FLOW MODEL (GWF)
                            VERSION 6.0.4 03/13/2019

   MODFLOW 6 compiled Mar 21 2019 15:37:31 with IFORT compiler (ver. 19.0.0)

This software has been approved for release by the U.S. Geological 
Survey (USGS). Although the software has been subjected to rigorous 
review, the USGS reserves the right to update the software as needed 
pursuant to further analysis and review. No warranty, expressed or 
implied, is made by the USGS or the U.S. Government as to the 
functionality of the software and related material nor shall the 
fact of release constitute any such warranty. Furthermore, the 
software is released on condition that neither the USGS nor the U.S. 
Government shall be held liable for any damages resulting from its 
authorized or unauthorized use. Also refer to the USGS Water 
Resources Software User Rights Notice for complete use, copyright, 
and distribution information.


MODFLOW was compiled using uniform precision.
Precision of REAL variables: 15


 OPENED 2etest_3D.dis
 FILE TYPE:DIS6                   UNIT 1005   STATUS:OLD                 
 FORMAT:FORMATTED              ACCESS:SEQUENTIAL          
 ACTION:READ                


 OPENED 2etest_3D.ic
 FILE TYPE:IC6                    UNIT 1006   STATUS:OLD                 
 FORMAT:FORMATTED              ACCESS:SEQUENTIAL          
 ACTION:READ                


 OPENED 2etest_3D.oc
 FILE TYPE:OC6                    UNIT 1007   STATUS:OLD                 
 FORMAT:FORMATTED              ACCESS:SEQUENTIAL          
 ACTION:READ                


 OPENED 2etest_3D.npf
 FILE TYPE:NPF6                   UNIT 1008   STATUS:OLD                 
 FORMAT:FORMATTED              ACCESS:SEQUENTIAL          
 ACTION:READ                


 OPENED 2etest_3D.rch
 FILE TYPE:RCH6                   UNIT 1009   STATUS:OLD                 
 FORMAT:FORMATTED              ACCESS:SEQUENTIAL          
 ACTION:READ                


 OPENED 2etest_3D.wel
 FILE TYPE:WEL6                   UNIT 1010   STATUS:OLD                 
 FORMAT:FORMATTED              ACCESS:SEQUENTIAL          
 ACTION:READ                


 OPENED sea.chd
 FILE TYPE:CHD6                   UNIT 1011   STATUS:OLD                 
 FORMAT:FORMATTED              ACCESS:SEQUENTIAL          
 ACTION:READ                


 OPENED plio.chd
 FILE TYPE:CHD6                   UNIT 1012   STATUS:OLD                 
 FORMAT:FORMATTED              ACCESS:SEQUENTIAL          
 ACTION:READ                


 OPENED eta.chd
 FILE TYPE:CHD6                   UNIT 1013   STATUS:OLD                 
 FORMAT:FORMATTED              ACCESS:SEQUENTIAL          
 ACTION:READ                


 OPENED agly.riv
 FILE TYPE:RIV6                   UNIT 1014   STATUS:OLD                 
 FORMAT:FORMATTED              ACCESS:SEQUENTIAL          
 ACTION:READ                


 OPENED Tet.riv
 FILE TYPE:RIV6                   UNIT 1015   STATUS:OLD                 
 FORMAT:FORMATTED              ACCESS:SEQUENTIAL          
 ACTION:READ                


 OPENED Rea.riv
 FILE TYPE:RIV6                   UNIT 1016   STATUS:OLD                 
 FORMAT:FORMATTED              ACCESS:SEQUENTIAL          
 ACTION:READ                


 OPENED Cant.riv
 FILE TYPE:RIV6                   UNIT 1017   STATUS:OLD                 
 FORMAT:FORMATTED              ACCESS:SEQUENTIAL          
 ACTION:READ                


 OPENED Tech.riv
 FILE TYPE:RIV6                   UNIT 1018   STATUS:OLD                 
 FORMAT:FORMATTED              ACCESS:SEQUENTIAL          
 ACTION:READ                


 OPENED Bol.riv
 FILE TYPE:RIV6                   UNIT 1019   STATUS:OLD                 
 FORMAT:FORMATTED              ACCESS:SEQUENTIAL          
 ACTION:READ                


 DIS -- STRUCTURED GRID DISCRETIZATION PACKAGE, VERSION 2 : 3/27/2014 - INPUT READ FROM UNIT 1005


 PROCESSING DISCRETIZATION OPTIONS
    XORIGIN SPECIFIED AS     660022.500000000    
    YORIGIN SPECIFIED AS     6149977.50000000    
 END OF DISCRETIZATION OPTIONS
 MODEL LENGTH UNIT IS UNDEFINED
 PROCESSING DISCRETIZATION DIMENSIONS
    NLAY =       3
    NROW =     183
    NCOL =     150
 END OF DISCRETIZATION DIMENSIONS
 PROCESSING GRIDDATA
 END PROCESSING GRIDDATA

 THE SPECIFIED IDOMAIN RESULTS IN A REDUCED NUMBER OF CELLS.
 NUMBER OF USER NODES:   82350
 NUMBER OF NODES IN SOLUTION:   28058



 NPF -- NODE PROPERTY FLOW PACKAGE, VERSION 1, 3/30/2015 INPUT READ FROM UNIT 1008


 PROCESSING NPF OPTIONS
    CELL-BY-CELL FLOW INFORMATION WILL BE SAVED TO BINARY FILE WHENEVER ICBCFL IS NOT ZERO.
 END OF NPF OPTIONS

 WEL   -- WEL PACKAGE, VERSION 8, 2/22/2014 INPUT READ FROM UNIT 1010

 PROCESSING WEL OPTIONS
    FLOWS WILL BE SAVED TO BUDGET FILE SPECIFIED IN OUTPUT CONTROL
 END OF WEL OPTIONS

 PROCESSING WEL DIMENSIONS
    MAXBOUND =     286
 END OF WEL DIMENSIONS

 RIV   -- RIV PACKAGE, VERSION 8, 2/22/2014 INPUT READ FROM UNIT 1014

 PROCESSING RIV OPTIONS
    FLOWS WILL BE SAVED TO BUDGET FILE SPECIFIED IN OUTPUT CONTROL
 END OF RIV OPTIONS

 PROCESSING RIV DIMENSIONS
    MAXBOUND =      83
 END OF RIV DIMENSIONS

 RIV   -- RIV PACKAGE, VERSION 8, 2/22/2014 INPUT READ FROM UNIT 1015

 PROCESSING RIV OPTIONS
    FLOWS WILL BE SAVED TO BUDGET FILE SPECIFIED IN OUTPUT CONTROL
 END OF RIV OPTIONS

 PROCESSING RIV DIMENSIONS
    MAXBOUND =     178
 END OF RIV DIMENSIONS

 RIV   -- RIV PACKAGE, VERSION 8, 2/22/2014 INPUT READ FROM UNIT 1016

 PROCESSING RIV OPTIONS
    FLOWS WILL BE SAVED TO BUDGET FILE SPECIFIED IN OUTPUT CONTROL
 END OF RIV OPTIONS

 PROCESSING RIV DIMENSIONS
    MAXBOUND =     118
 END OF RIV DIMENSIONS

 RIV   -- RIV PACKAGE, VERSION 8, 2/22/2014 INPUT READ FROM UNIT 1017

 PROCESSING RIV OPTIONS
    FLOWS WILL BE SAVED TO BUDGET FILE SPECIFIED IN OUTPUT CONTROL
 END OF RIV OPTIONS

 PROCESSING RIV DIMENSIONS
    MAXBOUND =      64
 END OF RIV DIMENSIONS

 RIV   -- RIV PACKAGE, VERSION 8, 2/22/2014 INPUT READ FROM UNIT 1018

 PROCESSING RIV OPTIONS
    FLOWS WILL BE SAVED TO BUDGET FILE SPECIFIED IN OUTPUT CONTROL
 END OF RIV OPTIONS

 PROCESSING RIV DIMENSIONS
    MAXBOUND =     127
 END OF RIV DIMENSIONS

 RIV   -- RIV PACKAGE, VERSION 8, 2/22/2014 INPUT READ FROM UNIT 1019

 PROCESSING RIV OPTIONS
    FLOWS WILL BE SAVED TO BUDGET FILE SPECIFIED IN OUTPUT CONTROL
 END OF RIV OPTIONS

 PROCESSING RIV DIMENSIONS
    MAXBOUND =      48
 END OF RIV DIMENSIONS

 RCH   -- RCH PACKAGE, VERSION 8, 2/22/2014 INPUT READ FROM UNIT 1009

 PROCESSING RCH OPTIONS
    FLOWS WILL BE SAVED TO BUDGET FILE SPECIFIED IN OUTPUT CONTROL
 END OF RCH OPTIONS

 PROCESSING RCH DIMENSIONS
    MAXBOUND =   10285
 END OF RCH DIMENSIONS

 CHD   -- CHD PACKAGE, VERSION 8, 2/22/2014 INPUT READ FROM UNIT 1011

 PROCESSING CHD OPTIONS
    FLOWS WILL BE SAVED TO BUDGET FILE SPECIFIED IN OUTPUT CONTROL
 END OF CHD OPTIONS

 PROCESSING CHD DIMENSIONS
    MAXBOUND =     169
 END OF CHD DIMENSIONS

 CHD   -- CHD PACKAGE, VERSION 8, 2/22/2014 INPUT READ FROM UNIT 1012

 PROCESSING CHD OPTIONS
    FLOWS WILL BE SAVED TO BUDGET FILE SPECIFIED IN OUTPUT CONTROL
 END OF CHD OPTIONS

 PROCESSING CHD DIMENSIONS
    MAXBOUND =      23
 END OF CHD DIMENSIONS

 CHD   -- CHD PACKAGE, VERSION 8, 2/22/2014 INPUT READ FROM UNIT 1013

 PROCESSING CHD OPTIONS
    FLOWS WILL BE SAVED TO BUDGET FILE SPECIFIED IN OUTPUT CONTROL
 END OF CHD OPTIONS

 PROCESSING CHD DIMENSIONS
    MAXBOUND =     645
 END OF CHD DIMENSIONS

 IC -- INITIAL CONDITIONS PACKAGE, VERSION 8, 3/28/2015 INPUT READ FROM UNIT 1006
 PROCESSING GRIDDATA
 END PROCESSING GRIDDATA
 PROCESSING GRIDDATA

                ICELLTYPE = 0
 K33 not provided.  Assuming K33 = K.
 K22 not provided.  Assuming K22 = K.
 END PROCESSING GRIDDATA
    BINARY GRID INFORMATION WILL BE WRITTEN TO:
      UNIT NUMBER: 1021
      FILE NAME: C:\Users\emmal\Documents\GitHub\TM_Ludovic_Schorpp\codes_tests\Modeles3D\2e_test_simple\working\2etest_3D.dis.grb

 OPENED C:\Users\emmal\Documents\GitHub\TM_Ludovic_Schorpp\codes_tests\Modeles3D\2e_test_simple\working\2etest_3D.dis.grb
 FILE TYPE:DATA(BINARY)   UNIT 1021   STATUS:REPLACE             
 FORMAT:UNFORMATTED            ACCESS:STREAM              
 ACTION:READWRITE           

      THE LAST TIME STEP WILL BE PRINTED
      THE LAST TIME STEP WILL BE PRINTED
 PROCESSING OC OPTIONS
    BUDGET INFORMATION WILL BE WRITTEN TO:
      UNIT NUMBER: 1022
      FILE NAME: 2etest_3D.cbc

 OPENED 2etest_3D.cbc
 FILE TYPE:DATA(BINARY)   UNIT 1022   STATUS:REPLACE             
 FORMAT:UNFORMATTED            ACCESS:STREAM              
 ACTION:READWRITE           

    HEAD INFORMATION WILL BE WRITTEN TO:
      UNIT NUMBER: 1023
      FILE NAME: 2etest_3D.hds

 OPENED 2etest_3D.hds
 FILE TYPE:DATA(BINARY)   UNIT 1023   STATUS:REPLACE             
 FORMAT:UNFORMATTED            ACCESS:STREAM              
 ACTION:READWRITE           

 END OF OC OPTIONS

 BEGIN READING OUTPUT CONTROL FOR STRESS PERIOD 1
      THE LAST TIME STEP WILL BE SAVED
      ALL TIME STEPS WILL BE SAVED
      THE LAST TIME STEP WILL BE PRINTED
      ALL TIME STEPS WILL BE PRINTED

 END READING OUTPUT CONTROL FOR STRESS PERIOD 1
 UBDSV1 SAVING     FLOW-JA-FACE ON UNIT   1022 AT TIME STEP      1, STRESS PERIOD      1
 UBDSV06 SAVING       DATA-SPDIS IN MODEL 2ETEST_3D        PACKAGE NPF             CONNECTED TO MODEL 2ETEST_3D        PACKAGE NPF              ON UNIT   1022 AT TIME STEP      1, STRESS PERIOD      1
 UBDSV06 SAVING              WEL IN MODEL 2ETEST_3D        PACKAGE 2ETEST_3D       CONNECTED TO MODEL 2ETEST_3D        PACKAGE WEL              ON UNIT   1022 AT TIME STEP      1, STRESS PERIOD      1
 UBDSV06 SAVING              RIV IN MODEL 2ETEST_3D        PACKAGE 2ETEST_3D       CONNECTED TO MODEL 2ETEST_3D        PACKAGE AGLY             ON UNIT   1022 AT TIME STEP      1, STRESS PERIOD      1
 UBDSV06 SAVING              RIV IN MODEL 2ETEST_3D        PACKAGE 2ETEST_3D       CONNECTED TO MODEL 2ETEST_3D        PACKAGE TET              ON UNIT   1022 AT TIME STEP      1, STRESS PERIOD      1
 UBDSV06 SAVING              RIV IN MODEL 2ETEST_3D        PACKAGE 2ETEST_3D       CONNECTED TO MODEL 2ETEST_3D        PACKAGE REA              ON UNIT   1022 AT TIME STEP      1, STRESS PERIOD      1
 UBDSV06 SAVING              RIV IN MODEL 2ETEST_3D        PACKAGE 2ETEST_3D       CONNECTED TO MODEL 2ETEST_3D        PACKAGE CANT             ON UNIT   1022 AT TIME STEP      1, STRESS PERIOD      1
 UBDSV06 SAVING              RIV IN MODEL 2ETEST_3D        PACKAGE 2ETEST_3D       CONNECTED TO MODEL 2ETEST_3D        PACKAGE TECH             ON UNIT   1022 AT TIME STEP      1, STRESS PERIOD      1
 UBDSV06 SAVING              RIV IN MODEL 2ETEST_3D        PACKAGE 2ETEST_3D       CONNECTED TO MODEL 2ETEST_3D        PACKAGE BOL              ON UNIT   1022 AT TIME STEP      1, STRESS PERIOD      1
 UBDSV06 SAVING              RCH IN MODEL 2ETEST_3D        PACKAGE 2ETEST_3D       CONNECTED TO MODEL 2ETEST_3D        PACKAGE RCH_0            ON UNIT   1022 AT TIME STEP      1, STRESS PERIOD      1
 UBDSV06 SAVING              CHD IN MODEL 2ETEST_3D        PACKAGE 2ETEST_3D       CONNECTED TO MODEL 2ETEST_3D        PACKAGE SEA              ON UNIT   1022 AT TIME STEP      1, STRESS PERIOD      1
 UBDSV06 SAVING              CHD IN MODEL 2ETEST_3D        PACKAGE 2ETEST_3D       CONNECTED TO MODEL 2ETEST_3D        PACKAGE PLIO             ON UNIT   1022 AT TIME STEP      1, STRESS PERIOD      1
 UBDSV06 SAVING              CHD IN MODEL 2ETEST_3D        PACKAGE 2ETEST_3D       CONNECTED TO MODEL 2ETEST_3D        PACKAGE ETA              ON UNIT   1022 AT TIME STEP      1, STRESS PERIOD      1
1
  HEAD IN LAYER   1 AT END OF TIME STEP   1 IN STRESS PERIOD    1
  ---------------------------------------------------------------------------

            1           2           3           4           5           6           7           8           9          10
           11          12          13          14          15          16          17          18          19          20
           21          22          23          24          25          26          27          28          29          30
           31          32          33          34          35          36          37          38          39          40
           41          42          43          44          45          46          47          48          49          50
           51          52          53          54          55          56          57          58          59          60
           61          62          63          64          65          66          67          68          69          70
           71          72          73          74          75          76          77          78          79          80
           81          82          83          84          85          86          87          88          89          90
           91          92          93          94          95          96          97          98          99         100
          101         102         103         104         105         106         107         108         109         110
          111         112         113         114         115         116         117         118         119         120
          121         122         123         124         125         126         127         128         129         130
          131         132         133         134         135         136         137         138         139         140
          141         142         143         144         145         146         147         148         149         150
 ........................................................................................................................
   1   1.0000E+30  1.0000E+30  1.0000E+30  1.0000E+30  1.0000E+30  1.0000E+30  1.0000E+30  1.0000E+30  1.0000E+30  1.0000E+30
       1.0000E+30  1.0000E+30  1.0000E+30  1.0000E+30  1.0000E+30  1.0000E+30  1.0000E+30  1.0000E+30  1.0000E+30  1.0000E+30
       1.0000E+30  1.0000E+30  1.0000E+30  1.0000E+30  1.0000E+30  1.0000E+30  1.0000E+30  1.0000E+30  1.0000E+30  1.0000E+30
       1.0000E+30  1.0000E+30  1.0000E+30  1.0000E+30  1.0000E+30  1.0000E+30  1.0000E+30  1.0000E+30  1.0000E+30  1.0000E+30
       1.0000E+30  1.0000E+30  1.0000E+30  1.0000E+30  1.0000E+30  1.0000E+30  1.0000E+30  1.0000E+30  1.0000E+30  1.0000E+30
       1.0000E+30  1.0000E+30  1.0000E+30  1.0000E+30  1.0000E+30  1.0000E+30  1.0000E+30  1.0000E+30  1.0000E+30  1.0000E+30
       1.0000E+30  1.0000E+30  1.0000E+30  1.0000E+30  1.0000E+30  1.0000E+30  1.0000E+30  1.0000E+30  1.0000E+30  1.0000E+30
       1.0000E+30  1.0000E+30  1.0000E+30  1.0000E+30  1.0000E+30  1.0000E+30  1.0000E+30  1.0000E+30  1.0000E+30  1.0000E+30
       1.0000E+30  1.0000E+30  1.0000E+30  1.0000E+30  1.0000E+30  1.0000E+30  1.0000E+30  1.0000E+30  1.0000E+30  1.0000E+30
       1.0000E+30  1.0000E+30  1.0000E+30  1.0000E+30  1.0000E+30  1.0000E+30  1.0000E+30  1.0000E+30  1.0000E+30  1.0000E+30
       1.0000E+30  1.0000E+30  1.0000E+30  1.0000E+30  1.0000E+30  1.0000E+30  1.0000E+30  1.0000E+30  1.0000E+30  1.0000E+30
       1.0000E+30  1.0000E+30  1.0000E+30  1.0000E+30  1.0000E+30  1.0000E+30  1.0000E+30  1.0000E+30  1.0000E+30  1.0000E+30
       1.0000E+30  1.0000E+30  1.0000E+30  1.0000E+30  1.0000E+30  1.0000E+30  1.0000E+30  1.0000E+30  1.0000E+30  1.0000E+30
       1.0000E+30  1.0000E+30  1.0000E+30  1.0000E+30  1.0000E+30  1.0000E+30  1.0000E+30  1.0000E+30  1.0000E+30  1.0000E+30
       1.0000E+30  1.0000E+30  1.0000E+30  1.0000E+30  1.0000E+30  1.0000E+30  1.0000E+30  1.0000E+30  1.0000E+30  1.0000E+30
   2   1.0000E+30  1.0000E+30  1.0000E+30  1.0000E+30  1.0000E+30  1.0000E+30  1.0000E+30  1.0000E+30  1.0000E+30  1.0000E+30
       1.0000E+30  1.0000E+30  1.0000E+30  1.0000E+30  1.0000E+30  1.0000E+30  1.0000E+30  1.0000E+30  1.0000E+30  1.0000E+30
       1.0000E+30  1.0000E+30  1.0000E+30  1.0000E+30  1.0000E+30  1.0000E+30  1.0000E+30  1.0000E+30  1.0000E+30  1.0000E+30
       1.0000E+30  1.0000E+30  1.0000E+30  1.0000E+30  1.0000E+30  1.0000E+30  1.0000E+30  1.0000E+30  1.0000E+30  1.0000E+30
       1.0000E+30  1.0000E+30  1.0000E+30  1.0000E+30  1.0000E+30  1.0000E+30  1.0000E+30  1.0000E+30  1.0000E+30  1.0000E+30
       1.0000E+30  1.0000E+30  1.0000E+30  1.0000E+30  1.0000E+30  1.0000E+30  1.0000E+30  1.0000E+30  1.0000E+30  1.0000E+30
       1.0000E+30  1.0000E+30  1.0000E+30  1.0000E+30  1.0000E+30  1.0000E+30  1.0000E+30  1.0000E+30  1.0000E+30  1.0000E+30
       1.0000E+30  1.0000E+30  1.0000E+30  1.0000E+30  1.0000E+30  1.0000E+30  1.0000E+30  1.0000E+30  1.0000E+30  1.0000E+30
       1.0000E+30  1.0000E+30  1.0000E+30  1.0000E+30  1.0000E+30  1.0000E+30  1.0000E+30  1.0000E+30  1.0000E+30  1.0000E+30
       1.0000E+30  1.0000E+30  1.0000E+30  1.0000E+30  1.0000E+30  1.0000E+30  1.0000E+30  1.0000E+30  1.0000E+30  1.0000E+30
       1.0000E+30  1.0000E+30  1.0000E+30  1.0000E+30  1.0000E+30  1.0000E+30  1.0000E+30  1.0000E+30  1.0000E+30  1.0000E+30
       1.0000E+30  1.0000E+30  1.0000E+30  1.0000E+30  1.0000E+30  1.0000E+30  1.0000E+30  1.0000E+30  1.0000E+30  1.0000E+30
       1.0000E+30  1.0000E+30  1.0000E+30  1.0000E+30  1.0000E+30  1.0000E+30  1.0000E+30  1.0000E+30  1.0000E+30  1.0000E+30
       1.0000E+30  1.0000E+30  1.0000E+30  1.0000E+30  1.0000E+30  1.0000E+30  1.0000E+30  1.0000E+30  1.0000E+30  1.0000E+30
       1.0000E+30  1.0000E+30  1.0000E+30  1.0000E+30  1.0000E+30  1.0000E+30  1.0000E+30  1.0000E+30  1.0000E+30  1.0000E+30
   3   1.0000E+30  1.0000E+30  1.0000E+30  1.0000E+30  1.0000E+30  1.0000E+30  1.0000E+30  1.0000E+30  1.0000E+30  1.0000E+30
       1.0000E+30  1.0000E+30  1.0000E+30  1.0000E+30  1.0000E+30  1.0000E+30  1.0000E+30  1.0000E+30  1.0000E+30  1.0000E+30
       1.0000E+30  1.0000E+30  1.0000E+30  1.0000E+30  1.0000E+30  1.0000E+30  1.0000E+30  1.0000E+30  1.0000E+30  1.0000E+30
       1.0000E+30  1.0000E+30  1.0000E+30  1.0000E+30  1.0000E+30  1.0000E+30  1.0000E+30  1.0000E+30  1.0000E+30  1.0000E+30
       1.0000E+30  1.0000E+30  1.0000E+30  1.0000E+30  1.0000E+30  1.0000E+30  1.0000E+30  1.0000E+30  1.0000E+30  1.0000E+30
       1.0000E+30  1.0000E+30  1.0000E+30  1.0000E+30  1.0000E+30  1.0000E+30  1.0000E+30  1.0000E+30  1.0000E+30  1.0000E+30
       1.0000E+30  1.0000E+30  1.0000E+30  1.0000E+30  1.0000E+30  1.0000E+30  1.0000E+30  1.0000E+30  1.0000E+30  1.0000E+30
       1.0000E+30  1.0000E+30  1.0000E+30  1.0000E+30  1.0000E+30  1.0000E+30  1.0000E+30  1.0000E+30  1.0000E+30  1.0000E+30
       1.0000E+30  1.0000E+30  1.0000E+30  1.0000E+30  1.0000E+30  1.0000E+30  1.0000E+30  1.0000E+30  1.0000E+30  1.0000E+30
       1.0000E+30  1.0000E+30  1.0000E+30  1.0000E+30  1.0000E+30  1.0000E+30  1.0000E+30  1.0000E+30  1.0000E+30  1.0000E+30
       1.0000E+30  1.0000E+30  1.0000E+30  1.0000E+30  1.0000E+30  1.0000E+30  1.0000E+30  1.0000E+30  1.0000E+30  1.0000E+30
       1.0000E+30  1.0000E+30  1.0000E+30  1.0000E+30  1.0000E+30  1.0000E+30  1.0000E+30  1.0000E+30  1.0000E+30  1.0000E+30
       1.0000E+30  1.0000E+30  1.0000E+30  1.0000E+30  1.0000E+30  1.0000E+30  1.0000E+30  1.0000E+30  1.0000E+30  1.0000E+30
       1.0000E+30  1.0000E+30  1.0000E+30  1.0000E+30  1.0000E+30  1.0000E+30  1.0000E+30  1.0000E+30  1.0000E+30  1.0000E+30
       1.0000E+30  1.0000E+30  1.0000E+30  1.0000E+30  1.0000E+30  1.0000E+30  1.0000E+30  1.0000E+30  1.0000E+30  1.0000E+30
   4   1.0000E+30  1.0000E+30  1.0000E+30  1.0000E+30  1.0000E+30  1.0000E+30  1.0000E+30  1.0000E+30  1.0000E+30  1.0000E+30
       1.0000E+30  1.0000E+30  1.0000E+30  1.0000E+30  1.0000E+30  1.0000E+30  1.0000E+30  1.0000E+30  1.0000E+30  1.0000E+30
       1.0000E+30  1.0000E+30  1.0000E+30  1.0000E+30  1.0000E+30  1.0000E+30  1.0000E+30  1.0000E+30  1.0000E+30  1.0000E+30
       1.0000E+30  1.0000E+30  1.0000E+30  1.0000E+30  1.0000E+30  1.0000E+30  1.0000E+30  1.0000E+30  1.0000E+30  1.0000E+30
       1.0000E+30  1.0000E+30  1.0000E+30  1.0000E+30  1.0000E+30  1.0000E+30  1.0000E+30  1.0000E+30  1.0000E+30  1.0000E+30
       1.0000E+30  1.0000E+30  1.0000E+30  1.0000E+30  1.0000E+30  1.0000E+30  1.0000E+30  1.0000E+30  1.0000E+30  1.0000E+30
       1.0000E+30  1.0000E+30  1.0000E+30  1.0000E+30  1.0000E+30  1.0000E+30  1.0000E+30  1.0000E+30  1.0000E+30  1.0000E+30
       1.0000E+30  1.0000E+30  1.0000E+30  1.0000E+30  1.0000E+30  1.0000E+30  1.0000E+30  1.0000E+30  1.0000E+30  1.0000E+30
       1.0000E+30  1.0000E+30  1.0000E+30  1.0000E+30  1.0000E+30  1.0000E+30  1.0000E+30  1.0000E+30  1.0000E+30  1.0000E+30
       1.0000E+30  1.0000E+30  1.0000E+30  1.0000E+30  1.0000E+30  1.0000E+30  1.0000E+30  1.0000E+30  1.0000E+30  1.0000E+30
       1.0000E+30  1.0000E+30  1.0000E+30  1.0000E+30  1.0000E+30  1.0000E+30  1.0000E+30  1.0000E+30  1.0000E+30  1.0000E+30
       1.0000E+30  1.0000E+30  1.0000E+30  1.0000E+30  1.0000E+30  1.0000E+30  1.0000E+30  1.0000E+30  1.0000E+30  1.0000E+30
       1.0000E+30  1.0000E+30  1.0000E+30  1.0000E+30  1.0000E+30  1.0000E+30  1.0000E+30  1.0000E+30  1.0000E+30  1.0000E+30
       1.0000E+30  1.0000E+30  1.0000E+30  1.0000E+30  1.0000E+30  1.0000E+30  1.0000E+30  1.0000E+30  1.0000E+30  1.0000E+30
       1.0000E+30  1.0000E+30  1.0000E+30  1.0000E+30  1.0000E+30  1.0000E+30  1.0000E+30  1.0000E+30  1.0000E+30  1.0000E+30
   5   1.0000E+30  1.0000E+30  1.0000E+30  1.0000E+30  1.0000E+30  1.0000E+30  1.0000E+30  1.0000E+30  1.0000E+30  1.0000E+30
       1.0000E+30  1.0000E+30  1.0000E+30  1.0000E+30  1.0000E+30  1.0000E+30  1.0000E+30  1.0000E+30  1.0000E+30  1.0000E+30
       1.0000E+30  1.0000E+30  1.0000E+30  1.0000E+30  1.0000E+30  1.0000E+30  1.0000E+30  1.0000E+30  1.0000E+30  1.0000E+30
       1.0000E+30  1.0000E+30  1.0000E+30  1.0000E+30  1.0000E+30  1.0000E+30  1.0000E+30  1.0000E+30  1.0000E+30  1.0000E+30
       1.0000E+30  1.0000E+30  1.0000E+30  1.0000E+30  1.0000E+30  1.0000E+30  1.0000E+30  1.0000E+30  1.0000E+30  1.0000E+30
       1.0000E+30  1.0000E+30  1.0000E+30  1.0000E+30  1.0000E+30  1.0000E+30  1.0000E+30  1.0000E+30  1.0000E+30  1.0000E+30
       1.0000E+30  1.0000E+30  1.0000E+30  1.0000E+30  1.0000E+30  1.0000E+30  1.0000E+30  1.0000E+30  1.0000E+30  1.0000E+30
       1.0000E+30  1.0000E+30  1.0000E+30  1.0000E+30  1.0000E+30  1.0000E+30  1.0000E+30  1.0000E+30  1.0000E+30  1.0000E+30
       1.0000E+30  1.0000E+30  1.0000E+30  1.0000E+30  1.0000E+30  1.0000E+30  1.0000E+30  1.0000E+30  1.0000E+30  1.0000E+30
       1.0000E+30  1.0000E+30  1.0000E+30  1.0000E+30  1.0000E+30  1.0000E+30  1.0000E+30  1.0000E+30  1.0000E+30  1.0000E+30
       1.0000E+30  1.0000E+30  1.0000E+30  1.0000E+30  1.0000E+30  1.0000E+30  1.0000E+30  1.0000E+30  1.0000E+30  1.0000E+30
       1.0000E+30  1.0000E+30  1.0000E+30  1.0000E+30  1.0000E+30  1.0000E+30  1.0000E+30  1.0000E+30  1.0000E+30  1.0000E+30
       1.0000E+30  1.0000E+30  1.0000E+30  1.0000E+30  1.0000E+30  1.0000E+30  1.0000E+30  1.0000E+30  1.0000E+30  1.0000E+30
       1.0000E+30  1.0000E+30  1.0000E+30  1.0000E+30  1.0000E+30  1.0000E+30  1.0000E+30  1.0000E+30  1.0000E+30  1.0000E+30
       1.0000E+30  1.0000E+30  1.0000E+30  1.0000E+30   0.000      1.0000E+30  1.0000E+30  1.0000E+30  1.0000E+30  1.0000E+30
   6   1.0000E+30  1.0000E+30  1.0000E+30  1.0000E+30  1.0000E+30  1.0000E+30  1.0000E+30  1.0000E+30  1.0000E+30  1.0000E+30
       1.0000E+30  1.0000E+30  1.0000E+30  1.0000E+30  1.0000E+30  1.0000E+30  1.0000E+30  1.0000E+30  1.0000E+30  1.0000E+30
       1.0000E+30  1.0000E+30  1.0000E+30  1.0000E+30  1.0000E+30  1.0000E+30  1.0000E+30  1.0000E+30  1.0000E+30  1.0000E+30
       1.0000E+30  1.0000E+30  1.0000E+30  1.0000E+30  1.0000E+30  1.0000E+30  1.0000E+30  1.0000E+30  1.0000E+30  1.0000E+30
       1.0000E+30  1.0000E+30  1.0000E+30  1.0000E+30  1.0000E+30  1.0000E+30  1.0000E+30  1.0000E+30  1.0000E+30  1.0000E+30
       1.0000E+30  1.0000E+30  1.0000E+30  1.0000E+30  1.0000E+30  1.0000E+30  1.0000E+30  1.0000E+30  1.0000E+30  1.0000E+30
       1.0000E+30  1.0000E+30  1.0000E+30  1.0000E+30  1.0000E+30  1.0000E+30  1.0000E+30  1.0000E+30  1.0000E+30  1.0000E+30
       1.0000E+30  1.0000E+30  1.0000E+30  1.0000E+30  1.0000E+30  1.0000E+30  1.0000E+30  1.0000E+30  1.0000E+30  1.0000E+30
       1.0000E+30  1.0000E+30  1.0000E+30  1.0000E+30  1.0000E+30  1.0000E+30  1.0000E+30  1.0000E+30  1.0000E+30  1.0000E+30
       1.0000E+30  1.0000E+30  1.0000E+30  1.0000E+30  1.0000E+30  1.0000E+30  1.0000E+30  1.0000E+30  1.0000E+30  1.0000E+30
       1.0000E+30  1.0000E+30  1.0000E+30  1.0000E+30  1.0000E+30  1.0000E+30  1.0000E+30  1.0000E+30  1.0000E+30  1.0000E+30
       1.0000E+30  1.0000E+30  1.0000E+30  1.0000E+30  1.0000E+30  1.0000E+30  1.0000E+30  1.0000E+30  1.0000E+30  1.0000E+30
       1.0000E+30  1.0000E+30  1.0000E+30  1.0000E+30  1.0000E+30  1.0000E+30  1.0000E+30  1.0000E+30  1.0000E+30  1.0000E+30
       1.0000E+30  1.0000E+30  1.0000E+30  1.0000E+30  1.0000E+30  1.0000E+30  1.0000E+30  1.0000E+30  1.0000E+30  1.0000E+30
       1.0000E+30  1.0000E+30  1.0000E+30  1.0000E+30   0.000       0.000       0.000      1.0000E+30  1.0000E+30  1.0000E+30
   7   1.0000E+30  1.0000E+30  1.0000E+30  1.0000E+30  1.0000E+30  1.0000E+30  1.0000E+30  1.0000E+30  1.0000E+30  1.0000E+30
       1.0000E+30  1.0000E+30  1.0000E+30  1.0000E+30  1.0000E+30  1.0000E+30  1.0000E+30  1.0000E+30  1.0000E+30  1.0000E+30
       1.0000E+30  1.0000E+30  1.0000E+30  1.0000E+30  1.0000E+30  1.0000E+30  1.0000E+30  1.0000E+30  1.0000E+30  1.0000E+30
       1.0000E+30  1.0000E+30  1.0000E+30  1.0000E+30  1.0000E+30  1.0000E+30  1.0000E+30  1.0000E+30  1.0000E+30  1.0000E+30
       1.0000E+30  1.0000E+30  1.0000E+30  1.0000E+30  1.0000E+30  1.0000E+30  1.0000E+30  1.0000E+30  1.0000E+30  1.0000E+30
       1.0000E+30  1.0000E+30  1.0000E+30  1.0000E+30  1.0000E+30  1.0000E+30  1.0000E+30  1.0000E+30  1.0000E+30  1.0000E+30
       1.0000E+30  1.0000E+30  1.0000E+30  1.0000E+30  1.0000E+30  1.0000E+30  1.0000E+30  1.0000E+30  1.0000E+30  1.0000E+30
       1.0000E+30  1.0000E+30  1.0000E+30  1.0000E+30  1.0000E+30  1.0000E+30  1.0000E+30  1.0000E+30  1.0000E+30  1.0000E+30
       1.0000E+30  1.0000E+30  1.0000E+30  1.0000E+30  1.0000E+30  1.0000E+30  1.0000E+30  1.0000E+30  1.0000E+30  1.0000E+30
       1.0000E+30  1.0000E+30  1.0000E+30  1.0000E+30  1.0000E+30  1.0000E+30  1.0000E+30  1.0000E+30  1.0000E+30  1.0000E+30
       1.0000E+30  1.0000E+30  1.0000E+30  1.0000E+30  1.0000E+30  1.0000E+30  1.0000E+30  1.0000E+30  1.0000E+30  1.0000E+30
       1.0000E+30  1.0000E+30  1.0000E+30  1.0000E+30  1.0000E+30  1.0000E+30  1.0000E+30  1.0000E+30  1.0000E+30  1.0000E+30
       1.0000E+30  1.0000E+30  1.0000E+30  1.0000E+30  1.0000E+30  1.0000E+30  1.0000E+30  1.0000E+30  1.0000E+30  1.0000E+30
       1.0000E+30  1.0000E+30  1.0000E+30  1.0000E+30  1.0000E+30  1.0000E+30  1.0000E+30  1.0000E+30  1.0000E+30  1.0000E+30
       1.0000E+30  1.0000E+30  1.0000E+30  1.0000E+30  1.0000E+30  1.0000E+30   0.000       0.000       0.000      1.0000E+30
   8   1.0000E+30  1.0000E+30  1.0000E+30  1.0000E+30  1.0000E+30  1.0000E+30  1.0000E+30  1.0000E+30  1.0000E+30  1.0000E+30
       1.0000E+30  1.0000E+30  1.0000E+30  1.0000E+30  1.0000E+30  1.0000E+30  1.0000E+30  1.0000E+30  1.0000E+30  1.0000E+30
       1.0000E+30  1.0000E+30  1.0000E+30  1.0000E+30  1.0000E+30  1.0000E+30  1.0000E+30  1.0000E+30  1.0000E+30  1.0000E+30
       1.0000E+30  1.0000E+30  1.0000E+30  1.0000E+30  1.0000E+30  1.0000E+30  1.0000E+30  1.0000E+30  1.0000E+30  1.0000E+30
       1.0000E+30  1.0000E+30  1.0000E+30  1.0000E+30  1.0000E+30  1.0000E+30  1.0000E+30  1.0000E+30  1.0000E+30  1.0000E+30
       1.0000E+30  1.0000E+30  1.0000E+30  1.0000E+30  1.0000E+30  1.0000E+30  1.0000E+30  1.0000E+30  1.0000E+30  1.0000E+30
       1.0000E+30  1.0000E+30  1.0000E+30  1.0000E+30  1.0000E+30  1.0000E+30  1.0000E+30  1.0000E+30  1.0000E+30  1.0000E+30
       1.0000E+30  1.0000E+30  1.0000E+30  1.0000E+30  1.0000E+30  1.0000E+30  1.0000E+30  1.0000E+30  1.0000E+30  1.0000E+30
       1.0000E+30  1.0000E+30  1.0000E+30  1.0000E+30  1.0000E+30  1.0000E+30  1.0000E+30  1.0000E+30  1.0000E+30  1.0000E+30
       1.0000E+30  1.0000E+30  1.0000E+30  1.0000E+30  1.0000E+30  1.0000E+30  1.0000E+30  1.0000E+30  1.0000E+30  1.0000E+30
       1.0000E+30  1.0000E+30  1.0000E+30  1.0000E+30  1.0000E+30  1.0000E+30  1.0000E+30  1.0000E+30  1.0000E+30  1.0000E+30
       1.0000E+30  1.0000E+30  1.0000E+30  1.0000E+30  1.0000E+30  1.0000E+30  1.0000E+30  1.0000E+30  1.0000E+30  1.0000E+30
       1.0000E+30  1.0000E+30  1.0000E+30  1.0000E+30  1.0000E+30  1.0000E+30  1.0000E+30  1.0000E+30  1.0000E+30  1.0000E+30
       1.0000E+30  1.0000E+30  1.0000E+30  1.0000E+30  1.0000E+30  1.0000E+30  1.0000E+30  1.0000E+30  1.0000E+30  1.0000E+30
       1.0000E+30  1.0000E+30  1.0000E+30  1.0000E+30  1.0000E+30  1.0000E+30  1.0000E+30  1.0000E+30   0.000      1.0000E+30
   9   1.0000E+30  1.0000E+30  1.0000E+30  1.0000E+30  1.0000E+30  1.0000E+30  1.0000E+30  1.0000E+30  1.0000E+30  1.0000E+30
       1.0000E+30  1.0000E+30  1.0000E+30  1.0000E+30  1.0000E+30  1.0000E+30  1.0000E+30  1.0000E+30  1.0000E+30  1.0000E+30
       1.0000E+30  1.0000E+30  1.0000E+30  1.0000E+30  1.0000E+30  1.0000E+30  1.0000E+30  1.0000E+30  1.0000E+30  1.0000E+30
       1.0000E+30  1.0000E+30  1.0000E+30  1.0000E+30  1.0000E+30  1.0000E+30  1.0000E+30  1.0000E+30  1.0000E+30  1.0000E+30
       1.0000E+30  1.0000E+30  1.0000E+30  1.0000E+30  1.0000E+30  1.0000E+30  1.0000E+30  1.0000E+30  1.0000E+30  1.0000E+30
       1.0000E+30  1.0000E+30  1.0000E+30  1.0000E+30  1.0000E+30  1.0000E+30  1.0000E+30  1.0000E+30  1.0000E+30  1.0000E+30
       1.0000E+30  1.0000E+30  1.0000E+30  1.0000E+30  1.0000E+30  1.0000E+30  1.0000E+30  1.0000E+30  1.0000E+30  1.0000E+30
       1.0000E+30  1.0000E+30  1.0000E+30  1.0000E+30  1.0000E+30  1.0000E+30  1.0000E+30  1.0000E+30  1.0000E+30  1.0000E+30
       1.0000E+30  1.0000E+30  1.0000E+30  1.0000E+30  1.0000E+30  1.0000E+30  1.0000E+30  1.0000E+30  1.0000E+30  1.0000E+30
       1.0000E+30  1.0000E+30  1.0000E+30  1.0000E+30  1.0000E+30  1.0000E+30  1.0000E+30  1.0000E+30  1.0000E+30  1.0000E+30
       1.0000E+30  1.0000E+30  1.0000E+30  1.0000E+30  1.0000E+30  1.0000E+30  1.0000E+30  1.0000E+30  1.0000E+30  1.0000E+30
       1.0000E+30  1.0000E+30  1.0000E+30  1.0000E+30  1.0000E+30  1.0000E+30  1.0000E+30  1.0000E+30  1.0000E+30  1.0000E+30
       1.0000E+30  1.0000E+30  1.0000E+30  1.0000E+30  1.0000E+30  1.0000E+30  1.0000E+30  1.0000E+30  1.0000E+30  1.0000E+30
       1.0000E+30  1.0000E+30  1.0000E+30  1.0000E+30  1.0000E+30  1.0000E+30  1.0000E+30  1.0000E+30  1.0000E+30  1.0000E+30
       1.0000E+30  1.0000E+30  1.0000E+30  1.0000E+30  1.0000E+30  1.0000E+30  1.0000E+30  1.0000E+30   0.000       0.000    
  10   1.0000E+30  1.0000E+30  1.0000E+30  1.0000E+30  1.0000E+30  1.0000E+30  1.0000E+30  1.0000E+30  1.0000E+30  1.0000E+30
       1.0000E+30  1.0000E+30  1.0000E+30  1.0000E+30  1.0000E+30  1.0000E+30  1.0000E+30  1.0000E+30  1.0000E+30  1.0000E+30
       1.0000E+30  1.0000E+30  1.0000E+30  1.0000E+30  1.0000E+30  1.0000E+30  1.0000E+30  1.0000E+30  1.0000E+30  1.0000E+30
       1.0000E+30  1.0000E+30  1.0000E+30  1.0000E+30  1.0000E+30  1.0000E+30  1.0000E+30  1.0000E+30  1.0000E+30  1.0000E+30
       1.0000E+30  1.0000E+30  1.0000E+30  1.0000E+30  1.0000E+30  1.0000E+30  1.0000E+30  1.0000E+30  1.0000E+30  1.0000E+30
       1.0000E+30  1.0000E+30  1.0000E+30  1.0000E+30  1.0000E+30  1.0000E+30  1.0000E+30  1.0000E+30  1.0000E+30  1.0000E+30
       1.0000E+30  1.0000E+30  1.0000E+30  1.0000E+30  1.0000E+30  1.0000E+30  1.0000E+30  1.0000E+30  1.0000E+30  1.0000E+30
       1.0000E+30  1.0000E+30  1.0000E+30  1.0000E+30  1.0000E+30  1.0000E+30  1.0000E+30  1.0000E+30  1.0000E+30  1.0000E+30
       1.0000E+30  1.0000E+30  1.0000E+30  1.0000E+30  1.0000E+30  1.0000E+30  1.0000E+30  1.0000E+30  1.0000E+30  1.0000E+30
       1.0000E+30  1.0000E+30  1.0000E+30  1.0000E+30  1.0000E+30  1.0000E+30  1.0000E+30  1.0000E+30  1.0000E+30  1.0000E+30
       1.0000E+30  1.0000E+30  1.0000E+30  1.0000E+30  1.0000E+30  1.0000E+30  1.0000E+30  1.0000E+30  1.0000E+30  1.0000E+30
       1.0000E+30  1.0000E+30  1.0000E+30  1.0000E+30  1.0000E+30  1.0000E+30  1.0000E+30  1.0000E+30  1.0000E+30  1.0000E+30
       1.0000E+30  1.0000E+30  1.0000E+30  1.0000E+30  1.0000E+30  1.0000E+30  1.0000E+30  1.0000E+30  1.0000E+30  1.0000E+30
       1.0000E+30  1.0000E+30  1.0000E+30  1.0000E+30  1.0000E+30  1.0000E+30  1.0000E+30  1.0000E+30  1.0000E+30  1.0000E+30
       1.0000E+30  1.0000E+30  1.0000E+30  1.0000E+30  1.0000E+30  1.0000E+30  1.0000E+30  1.0000E+30  1.0000E+30   0.000    
  11   1.0000E+30  1.0000E+30  1.0000E+30  1.0000E+30  1.0000E+30  1.0000E+30  1.0000E+30  1.0000E+30  1.0000E+30  1.0000E+30
       1.0000E+30  1.0000E+30  1.0000E+30  1.0000E+30  1.0000E+30  1.0000E+30  1.0000E+30  1.0000E+30  1.0000E+30  1.0000E+30
       1.0000E+30  1.0000E+30  1.0000E+30  1.0000E+30  1.0000E+30  1.0000E+30  1.0000E+30  1.0000E+30  1.0000E+30  1.0000E+30
       1.0000E+30  1.0000E+30  1.0000E+30  1.0000E+30  1.0000E+30  1.0000E+30  1.0000E+30  1.0000E+30  1.0000E+30  1.0000E+30
       1.0000E+30  1.0000E+30  1.0000E+30  1.0000E+30  1.0000E+30  1.0000E+30  1.0000E+30  1.0000E+30  1.0000E+30  1.0000E+30
       1.0000E+30  1.0000E+30  1.0000E+30  1.0000E+30  1.0000E+30  1.0000E+30  1.0000E+30  1.0000E+30  1.0000E+30  1.0000E+30
       1.0000E+30  1.0000E+30  1.0000E+30  1.0000E+30  1.0000E+30  1.0000E+30  1.0000E+30  1.0000E+30  1.0000E+30  1.0000E+30
       1.0000E+30  1.0000E+30  1.0000E+30  1.0000E+30  1.0000E+30  1.0000E+30  1.0000E+30  1.0000E+30  1.0000E+30  1.0000E+30
       1.0000E+30  1.0000E+30  1.0000E+30  1.0000E+30  1.0000E+30  1.0000E+30  1.0000E+30  1.0000E+30  1.0000E+30  1.0000E+30
       1.0000E+30  1.0000E+30  1.0000E+30  1.0000E+30  1.0000E+30  1.0000E+30  1.0000E+30  1.0000E+30  1.0000E+30  1.0000E+30
       1.0000E+30  1.0000E+30  1.0000E+30  1.0000E+30  1.0000E+30  1.0000E+30  1.0000E+30  1.0000E+30  1.0000E+30  1.0000E+30
       1.0000E+30  1.0000E+30  1.0000E+30  1.0000E+30  1.0000E+30  1.0000E+30  1.0000E+30  1.0000E+30  1.0000E+30  1.0000E+30
       1.0000E+30  1.0000E+30  1.0000E+30  1.0000E+30  1.0000E+30  1.0000E+30  1.0000E+30  1.0000E+30  1.0000E+30  1.0000E+30
       1.0000E+30  1.0000E+30  1.0000E+30  1.0000E+30  1.0000E+30  1.0000E+30  1.0000E+30  1.0000E+30  1.0000E+30  1.0000E+30
       1.0000E+30  1.0000E+30  1.0000E+30  1.0000E+30  1.0000E+30  1.0000E+30  1.0000E+30  1.0000E+30  1.0000E+30   0.000    
  12   1.0000E+30  1.0000E+30  1.0000E+30  1.0000E+30  1.0000E+30  1.0000E+30  1.0000E+30  1.0000E+30  1.0000E+30  1.0000E+30
       1.0000E+30  1.0000E+30  1.0000E+30  1.0000E+30  1.0000E+30  1.0000E+30  1.0000E+30  1.0000E+30  1.0000E+30  1.0000E+30
       1.0000E+30  1.0000E+30  1.0000E+30  1.0000E+30  1.0000E+30  1.0000E+30  1.0000E+30  1.0000E+30  1.0000E+30  1.0000E+30
       1.0000E+30  1.0000E+30  1.0000E+30  1.0000E+30  1.0000E+30  1.0000E+30  1.0000E+30  1.0000E+30  1.0000E+30  1.0000E+30
       1.0000E+30  1.0000E+30  1.0000E+30  1.0000E+30  1.0000E+30  1.0000E+30  1.0000E+30  1.0000E+30  1.0000E+30  1.0000E+30
       1.0000E+30  1.0000E+30  1.0000E+30  1.0000E+30  1.0000E+30  1.0000E+30  1.0000E+30  1.0000E+30  1.0000E+30  1.0000E+30
       1.0000E+30  1.0000E+30  1.0000E+30  1.0000E+30  1.0000E+30  1.0000E+30  1.0000E+30  1.0000E+30  1.0000E+30  1.0000E+30
       1.0000E+30  1.0000E+30  1.0000E+30  1.0000E+30  1.0000E+30  1.0000E+30  1.0000E+30  1.0000E+30  1.0000E+30  1.0000E+30
       1.0000E+30  1.0000E+30  1.0000E+30  1.0000E+30  1.0000E+30  1.0000E+30  1.0000E+30  1.0000E+30  1.0000E+30  1.0000E+30
       1.0000E+30  1.0000E+30  1.0000E+30  1.0000E+30  1.0000E+30  1.0000E+30  1.0000E+30  1.0000E+30  1.0000E+30  1.0000E+30
       1.0000E+30  1.0000E+30  1.0000E+30  1.0000E+30  1.0000E+30  1.0000E+30  1.0000E+30  1.0000E+30  1.0000E+30  1.0000E+30
       1.0000E+30  1.0000E+30  1.0000E+30  1.0000E+30  1.0000E+30  1.0000E+30  1.0000E+30  1.0000E+30  1.0000E+30  1.0000E+30
       1.0000E+30  1.0000E+30  1.0000E+30  1.0000E+30  1.0000E+30  1.0000E+30  1.0000E+30  1.0000E+30  1.0000E+30  1.0000E+30
       1.0000E+30  1.0000E+30  1.0000E+30  1.0000E+30  1.0000E+30  1.0000E+30  1.0000E+30  1.0000E+30  1.0000E+30  1.0000E+30
       1.0000E+30  1.0000E+30  1.0000E+30  1.0000E+30  1.0000E+30  1.0000E+30  1.0000E+30  1.0000E+30  1.0000E+30   0.000    
  13   1.0000E+30  1.0000E+30  1.0000E+30  1.0000E+30  1.0000E+30  1.0000E+30  1.0000E+30  1.0000E+30  1.0000E+30  1.0000E+30
       1.0000E+30  1.0000E+30  1.0000E+30  1.0000E+30  1.0000E+30  1.0000E+30  1.0000E+30  1.0000E+30  1.0000E+30  1.0000E+30
       1.0000E+30  1.0000E+30  1.0000E+30  1.0000E+30  1.0000E+30  1.0000E+30  1.0000E+30  1.0000E+30  1.0000E+30  1.0000E+30
       1.0000E+30  1.0000E+30  1.0000E+30  1.0000E+30  1.0000E+30  1.0000E+30  1.0000E+30  1.0000E+30  1.0000E+30  1.0000E+30
       1.0000E+30  1.0000E+30  1.0000E+30  1.0000E+30  1.0000E+30  1.0000E+30  1.0000E+30  1.0000E+30  1.0000E+30  1.0000E+30
       1.0000E+30  1.0000E+30  1.0000E+30  1.0000E+30  1.0000E+30  1.0000E+30  1.0000E+30  1.0000E+30  1.0000E+30  1.0000E+30
       1.0000E+30  1.0000E+30  1.0000E+30  1.0000E+30  1.0000E+30  1.0000E+30  1.0000E+30  1.0000E+30  1.0000E+30  1.0000E+30
       1.0000E+30  1.0000E+30  1.0000E+30  1.0000E+30  1.0000E+30  1.0000E+30  1.0000E+30  1.0000E+30  1.0000E+30  1.0000E+30
       1.0000E+30  1.0000E+30  1.0000E+30  1.0000E+30  1.0000E+30  1.0000E+30  1.0000E+30  1.0000E+30  1.0000E+30  1.0000E+30
       1.0000E+30  1.0000E+30  1.0000E+30  1.0000E+30  1.0000E+30  1.0000E+30  1.0000E+30  1.0000E+30  1.0000E+30  1.0000E+30
       1.0000E+30  1.0000E+30  1.0000E+30  1.0000E+30  1.0000E+30  1.0000E+30  1.0000E+30  1.0000E+30  1.0000E+30  1.0000E+30
       1.0000E+30  1.0000E+30  1.0000E+30  1.0000E+30  1.0000E+30  1.0000E+30  1.0000E+30  1.0000E+30  1.0000E+30  1.0000E+30
       1.0000E+30  1.0000E+30  1.0000E+30  1.0000E+30  1.0000E+30  1.0000E+30  1.0000E+30  1.0000E+30  1.0000E+30  1.0000E+30
       1.0000E+30  1.0000E+30  1.0000E+30  1.0000E+30  1.0000E+30  1.0000E+30  1.0000E+30  1.0000E+30  1.0000E+30  1.0000E+30
       1.0000E+30  1.0000E+30  1.0000E+30  1.0000E+30  1.0000E+30  1.0000E+30  1.0000E+30  1.0000E+30   0.000       0.000    
  14   1.0000E+30  1.0000E+30  1.0000E+30  1.0000E+30  1.0000E+30  1.0000E+30  1.0000E+30  1.0000E+30  1.0000E+30  1.0000E+30
       1.0000E+30  1.0000E+30  1.0000E+30  1.0000E+30  1.0000E+30  1.0000E+30  1.0000E+30  1.0000E+30  1.0000E+30  1.0000E+30
       1.0000E+30  1.0000E+30  1.0000E+30  1.0000E+30  1.0000E+30  1.0000E+30  1.0000E+30  1.0000E+30  1.0000E+30  1.0000E+30
       1.0000E+30  1.0000E+30  1.0000E+30  1.0000E+30  1.0000E+30  1.0000E+30  1.0000E+30  1.0000E+30  1.0000E+30  1.0000E+30
       1.0000E+30  1.0000E+30  1.0000E+30  1.0000E+30  1.0000E+30  1.0000E+30  1.0000E+30  1.0000E+30  1.0000E+30  1.0000E+30
       1.0000E+30  1.0000E+30  1.0000E+30  1.0000E+30  1.0000E+30  1.0000E+30  1.0000E+30  1.0000E+30  1.0000E+30  1.0000E+30
       1.0000E+30  1.0000E+30  1.0000E+30  1.0000E+30  1.0000E+30  1.0000E+30  1.0000E+30  1.0000E+30  1.0000E+30  1.0000E+30
       1.0000E+30  1.0000E+30  1.0000E+30  1.0000E+30  1.0000E+30  1.0000E+30  1.0000E+30  1.0000E+30  1.0000E+30  1.0000E+30
       1.0000E+30  1.0000E+30  1.0000E+30  1.0000E+30  1.0000E+30  1.0000E+30  1.0000E+30  1.0000E+30  1.0000E+30  1.0000E+30
       1.0000E+30  1.0000E+30  1.0000E+30  1.0000E+30  1.0000E+30  1.0000E+30  1.0000E+30  1.0000E+30  1.0000E+30  1.0000E+30
       1.0000E+30  1.0000E+30  1.0000E+30  1.0000E+30  1.0000E+30  1.0000E+30  1.0000E+30  1.0000E+30  1.0000E+30  1.0000E+30
       1.0000E+30  1.0000E+30  1.0000E+30  1.0000E+30  1.0000E+30  1.0000E+30  1.0000E+30  1.0000E+30  1.0000E+30  1.0000E+30
       1.0000E+30  1.0000E+30  1.0000E+30  1.0000E+30  1.0000E+30  1.0000E+30  1.0000E+30  1.0000E+30  1.0000E+30  1.0000E+30
       1.0000E+30  1.0000E+30  1.0000E+30  1.0000E+30  1.0000E+30  1.0000E+30  1.0000E+30  1.0000E+30  1.0000E+30  1.0000E+30
       1.0000E+30  1.0000E+30  1.0000E+30  1.0000E+30  1.0000E+30  1.0000E+30  1.0000E+30  1.0000E+30   0.000      1.0000E+30
  15   1.0000E+30  1.0000E+30  1.0000E+30  1.0000E+30  1.0000E+30  1.0000E+30  1.0000E+30  1.0000E+30  1.0000E+30  1.0000E+30
       1.0000E+30  1.0000E+30  1.0000E+30  1.0000E+30  1.0000E+30  1.0000E+30  1.0000E+30  1.0000E+30  1.0000E+30  1.0000E+30
       1.0000E+30  1.0000E+30  1.0000E+30  1.0000E+30  1.0000E+30  1.0000E+30  1.0000E+30  1.0000E+30  1.0000E+30  1.0000E+30
       1.0000E+30  1.0000E+30  1.0000E+30  1.0000E+30  1.0000E+30  1.0000E+30  1.0000E+30  1.0000E+30  1.0000E+30  1.0000E+30
       1.0000E+30  1.0000E+30  1.0000E+30  1.0000E+30  1.0000E+30  1.0000E+30  1.0000E+30  1.0000E+30  1.0000E+30  1.0000E+30
       1.0000E+30  1.0000E+30  1.0000E+30  1.0000E+30  1.0000E+30  1.0000E+30  1.0000E+30  1.0000E+30  1.0000E+30  1.0000E+30
       1.0000E+30  1.0000E+30  1.0000E+30  1.0000E+30  1.0000E+30  1.0000E+30  1.0000E+30  1.0000E+30  1.0000E+30  1.0000E+30
       1.0000E+30  1.0000E+30  1.0000E+30  1.0000E+30  1.0000E+30  1.0000E+30  1.0000E+30  1.0000E+30  1.0000E+30  1.0000E+30
       1.0000E+30  1.0000E+30  1.0000E+30  1.0000E+30  1.0000E+30  1.0000E+30  1.0000E+30  1.0000E+30  1.0000E+30  1.0000E+30
       1.0000E+30  1.0000E+30  1.0000E+30  1.0000E+30  1.0000E+30  1.0000E+30  1.0000E+30  1.0000E+30  1.0000E+30  1.0000E+30
       1.0000E+30  1.0000E+30  1.0000E+30  1.0000E+30  1.0000E+30  1.0000E+30  1.0000E+30  1.0000E+30  1.0000E+30  1.0000E+30
       1.0000E+30  1.0000E+30  1.0000E+30  1.0000E+30  1.0000E+30  1.0000E+30  1.0000E+30  1.0000E+30  1.0000E+30  1.0000E+30
       1.0000E+30  1.0000E+30  1.0000E+30  1.0000E+30  1.0000E+30  1.0000E+30  1.0000E+30  1.0000E+30  1.0000E+30  1.0000E+30
       1.0000E+30  1.0000E+30  1.0000E+30  1.0000E+30  1.0000E+30  1.0000E+30  1.0000E+30  1.0000E+30  1.0000E+30  1.0000E+30
       1.0000E+30  1.0000E+30  1.0000E+30  1.0000E+30   0.000      1.0000E+30  1.0000E+30  1.0000E+30   0.000      1.0000E+30
  16   1.0000E+30  1.0000E+30  1.0000E+30  1.0000E+30  1.0000E+30  1.0000E+30  1.0000E+30  1.0000E+30  1.0000E+30  1.0000E+30
       1.0000E+30  1.0000E+30  1.0000E+30  1.0000E+30  1.0000E+30  1.0000E+30  1.0000E+30  1.0000E+30  1.0000E+30  1.0000E+30
       1.0000E+30  1.0000E+30  1.0000E+30  1.0000E+30  1.0000E+30  1.0000E+30  1.0000E+30  1.0000E+30  1.0000E+30  1.0000E+30
       1.0000E+30  1.0000E+30  1.0000E+30  1.0000E+30  1.0000E+30  1.0000E+30  1.0000E+30  1.0000E+30  1.0000E+30  1.0000E+30
       1.0000E+30  1.0000E+30  1.0000E+30  1.0000E+30  1.0000E+30  1.0000E+30  1.0000E+30  1.0000E+30  1.0000E+30  1.0000E+30
       1.0000E+30  1.0000E+30  1.0000E+30  1.0000E+30  1.0000E+30  1.0000E+30  1.0000E+30  1.0000E+30  1.0000E+30  1.0000E+30
       1.0000E+30  1.0000E+30  1.0000E+30  1.0000E+30  1.0000E+30  1.0000E+30  1.0000E+30  1.0000E+30  1.0000E+30  1.0000E+30
       1.0000E+30  1.0000E+30  1.0000E+30  1.0000E+30  1.0000E+30  1.0000E+30  1.0000E+30  1.0000E+30  1.0000E+30  1.0000E+30
       1.0000E+30  1.0000E+30  1.0000E+30  1.0000E+30  1.0000E+30  1.0000E+30  1.0000E+30  1.0000E+30  1.0000E+30  1.0000E+30
       1.0000E+30  1.0000E+30  1.0000E+30  1.0000E+30  1.0000E+30  1.0000E+30  1.0000E+30  1.0000E+30  1.0000E+30  1.0000E+30
       1.0000E+30  1.0000E+30  1.0000E+30  1.0000E+30  1.0000E+30  1.0000E+30  1.0000E+30  1.0000E+30  1.0000E+30  1.0000E+30
       1.0000E+30  1.0000E+30  1.0000E+30  1.0000E+30  1.0000E+30  1.0000E+30  1.0000E+30  1.0000E+30  1.0000E+30  1.0000E+30
       1.0000E+30  1.0000E+30  1.0000E+30  1.0000E+30  1.0000E+30  1.0000E+30  1.0000E+30  1.0000E+30  1.0000E+30  1.0000E+30
       1.0000E+30  1.0000E+30  1.0000E+30  1.0000E+30  1.0000E+30  1.0000E+30  1.0000E+30  1.0000E+30  1.0000E+30  1.0000E+30
       1.0000E+30  1.0000E+30  1.0000E+30  1.0000E+30   0.000       0.000       0.000      1.0000E+30   0.000      1.0000E+30
  17   1.0000E+30  1.0000E+30  1.0000E+30  1.0000E+30  1.0000E+30  1.0000E+30  1.0000E+30  1.0000E+30  1.0000E+30  1.0000E+30
       1.0000E+30  1.0000E+30  1.0000E+30  1.0000E+30  1.0000E+30  1.0000E+30  1.0000E+30  1.0000E+30  1.0000E+30  1.0000E+30
       1.0000E+30  1.0000E+30  1.0000E+30  1.0000E+30  1.0000E+30  1.0000E+30  1.0000E+30  1.0000E+30  1.0000E+30  1.0000E+30
       1.0000E+30  1.0000E+30  1.0000E+30  1.0000E+30  1.0000E+30  1.0000E+30  1.0000E+30  1.0000E+30  1.0000E+30  1.0000E+30
       1.0000E+30  1.0000E+30  1.0000E+30  1.0000E+30  1.0000E+30  1.0000E+30  1.0000E+30  1.0000E+30  1.0000E+30  1.0000E+30
       1.0000E+30  1.0000E+30  1.0000E+30  1.0000E+30  1.0000E+30  1.0000E+30  1.0000E+30  1.0000E+30  1.0000E+30  1.0000E+30
       1.0000E+30  1.0000E+30  1.0000E+30  1.0000E+30  1.0000E+30  1.0000E+30  1.0000E+30  1.0000E+30  1.0000E+30  1.0000E+30
       1.0000E+30  1.0000E+30  1.0000E+30  1.0000E+30  1.0000E+30  1.0000E+30  1.0000E+30  1.0000E+30  1.0000E+30  1.0000E+30
       1.0000E+30  1.0000E+30  1.0000E+30  1.0000E+30  1.0000E+30  1.0000E+30  1.0000E+30  1.0000E+30  1.0000E+30  1.0000E+30
       1.0000E+30  1.0000E+30  1.0000E+30  1.0000E+30  1.0000E+30  1.0000E+30  1.0000E+30  1.0000E+30  1.0000E+30  1.0000E+30
       1.0000E+30  1.0000E+30  1.0000E+30  1.0000E+30  1.0000E+30  1.0000E+30  1.0000E+30  1.0000E+30  1.0000E+30  1.0000E+30
       1.0000E+30  1.0000E+30  1.0000E+30  1.0000E+30  1.0000E+30  1.0000E+30  1.0000E+30  1.0000E+30  1.0000E+30  1.0000E+30
       1.0000E+30  1.0000E+30  1.0000E+30  1.0000E+30  1.0000E+30  1.0000E+30  1.0000E+30  1.0000E+30  1.0000E+30  1.0000E+30
       1.0000E+30  1.0000E+30  1.0000E+30  1.0000E+30  1.0000E+30  1.0000E+30  1.0000E+30  1.0000E+30  1.0000E+30  1.0000E+30
       1.0000E+30  1.0000E+30  1.0000E+30   0.000       0.000       0.000       0.000      1.0000E+30   0.000      1.0000E+30
  18   1.0000E+30  1.0000E+30  1.0000E+30  1.0000E+30  1.0000E+30  1.0000E+30  1.0000E+30  1.0000E+30  1.0000E+30  1.0000E+30
       1.0000E+30  1.0000E+30  1.0000E+30  1.0000E+30  1.0000E+30  1.0000E+30  1.0000E+30  1.0000E+30  1.0000E+30  1.0000E+30
       1.0000E+30  1.0000E+30  1.0000E+30  1.0000E+30  1.0000E+30  1.0000E+30  1.0000E+30  1.0000E+30  1.0000E+30  1.0000E+30
       1.0000E+30  1.0000E+30  1.0000E+30  1.0000E+30  1.0000E+30  1.0000E+30  1.0000E+30  1.0000E+30  1.0000E+30  1.0000E+30
       1.0000E+30  1.0000E+30  1.0000E+30  1.0000E+30  1.0000E+30  1.0000E+30  1.0000E+30  1.0000E+30  1.0000E+30  1.0000E+30
       1.0000E+30  1.0000E+30  1.0000E+30  1.0000E+30  1.0000E+30  1.0000E+30  1.0000E+30  1.0000E+30  1.0000E+30  1.0000E+30
       1.0000E+30  1.0000E+30  1.0000E+30  1.0000E+30  1.0000E+30  1.0000E+30  1.0000E+30  1.0000E+30  1.0000E+30  1.0000E+30
       1.0000E+30  1.0000E+30  1.0000E+30  1.0000E+30  1.0000E+30  1.0000E+30  1.0000E+30  1.0000E+30  1.0000E+30  1.0000E+30
       1.0000E+30  1.0000E+30  1.0000E+30  1.0000E+30  1.0000E+30  1.0000E+30  1.0000E+30  1.0000E+30  1.0000E+30  1.0000E+30
       1.0000E+30  1.0000E+30  1.0000E+30  1.0000E+30  1.0000E+30  1.0000E+30  1.0000E+30  1.0000E+30  1.0000E+30  1.0000E+30
       1.0000E+30  1.0000E+30  1.0000E+30  1.0000E+30  1.0000E+30  1.0000E+30  1.0000E+30  1.0000E+30  1.0000E+30  1.0000E+30
       1.0000E+30  1.0000E+30  1.0000E+30  1.0000E+30  1.0000E+30  1.0000E+30  1.0000E+30  1.0000E+30  1.0000E+30  1.0000E+30
       1.0000E+30  1.0000E+30  1.0000E+30  1.0000E+30  1.0000E+30  1.0000E+30  1.0000E+30  1.0000E+30  1.0000E+30  1.0000E+30
       1.0000E+30  1.0000E+30  1.0000E+30  1.0000E+30   0.000       0.000       0.000       0.000      1.0000E+30   0.000    
        0.000       0.000       0.000       0.000       0.000       0.000       0.000       0.000       0.000      1.0000E+30
  19   1.0000E+30  1.0000E+30  1.0000E+30  1.0000E+30  1.0000E+30  1.0000E+30  1.0000E+30  1.0000E+30  1.0000E+30  1.0000E+30
       1.0000E+30  1.0000E+30  1.0000E+30  1.0000E+30  1.0000E+30  1.0000E+30  1.0000E+30  1.0000E+30  1.0000E+30  1.0000E+30
       1.0000E+30  1.0000E+30  1.0000E+30  1.0000E+30  1.0000E+30  1.0000E+30  1.0000E+30  1.0000E+30  1.0000E+30  1.0000E+30
       1.0000E+30  1.0000E+30  1.0000E+30  1.0000E+30  1.0000E+30  1.0000E+30  1.0000E+30  1.0000E+30  1.0000E+30  1.0000E+30
       1.0000E+30  1.0000E+30  1.0000E+30  1.0000E+30  1.0000E+30  1.0000E+30  1.0000E+30  1.0000E+30  1.0000E+30  1.0000E+30
       1.0000E+30  1.0000E+30  1.0000E+30  1.0000E+30  1.0000E+30  1.0000E+30  1.0000E+30  1.0000E+30  1.0000E+30  1.0000E+30
       1.0000E+30  1.0000E+30  1.0000E+30  1.0000E+30  1.0000E+30  1.0000E+30  1.0000E+30  1.0000E+30  1.0000E+30  1.0000E+30
       1.0000E+30  1.0000E+30  1.0000E+30  1.0000E+30  1.0000E+30  1.0000E+30  1.0000E+30  1.0000E+30  1.0000E+30  1.0000E+30
       1.0000E+30  1.0000E+30  1.0000E+30  1.0000E+30  1.0000E+30  1.0000E+30  1.0000E+30  1.0000E+30  1.0000E+30  1.0000E+30
       1.0000E+30  1.0000E+30  1.0000E+30  1.0000E+30  1.0000E+30  1.0000E+30  1.0000E+30  1.0000E+30  1.0000E+30  1.0000E+30
       1.0000E+30  1.0000E+30  1.0000E+30  1.0000E+30  1.0000E+30  1.0000E+30  1.0000E+30  1.0000E+30  1.0000E+30  1.0000E+30
       1.0000E+30  1.0000E+30  1.0000E+30  1.0000E+30  1.0000E+30  1.0000E+30  1.0000E+30  1.0000E+30  1.0000E+30  1.0000E+30
       1.0000E+30  1.0000E+30  1.0000E+30  1.0000E+30  1.0000E+30  1.0000E+30  1.0000E+30  1.0000E+30  1.0000E+30  1.0000E+30
       1.0000E+30  1.0000E+30  1.0000E+30   0.000       0.000       0.000       0.000       0.000       0.000       0.000    
        0.000       0.000       0.000       0.000       0.000       0.000      1.0000E+30   0.000      1.0000E+30  1.0000E+30
  20   1.0000E+30  1.0000E+30  1.0000E+30  1.0000E+30  1.0000E+30  1.0000E+30  1.0000E+30  1.0000E+30  1.0000E+30  1.0000E+30
       1.0000E+30  1.0000E+30  1.0000E+30  1.0000E+30  1.0000E+30  1.0000E+30  1.0000E+30  1.0000E+30  1.0000E+30  1.0000E+30
       1.0000E+30  1.0000E+30  1.0000E+30  1.0000E+30  1.0000E+30  1.0000E+30  1.0000E+30  1.0000E+30  1.0000E+30  1.0000E+30
       1.0000E+30  1.0000E+30  1.0000E+30  1.0000E+30  1.0000E+30  1.0000E+30  1.0000E+30  1.0000E+30  1.0000E+30  1.0000E+30
       1.0000E+30  1.0000E+30  1.0000E+30  1.0000E+30  1.0000E+30  1.0000E+30  1.0000E+30  1.0000E+30  1.0000E+30  1.0000E+30
       1.0000E+30  1.0000E+30  1.0000E+30  1.0000E+30  1.0000E+30  1.0000E+30  1.0000E+30  1.0000E+30  1.0000E+30  1.0000E+30
       1.0000E+30  1.0000E+30  1.0000E+30  1.0000E+30  1.0000E+30  1.0000E+30  1.0000E+30  1.0000E+30  1.0000E+30  1.0000E+30
       1.0000E+30  1.0000E+30  1.0000E+30  1.0000E+30  1.0000E+30  1.0000E+30  1.0000E+30  1.0000E+30  1.0000E+30  1.0000E+30
       1.0000E+30  1.0000E+30  1.0000E+30  1.0000E+30  1.0000E+30  1.0000E+30  1.0000E+30  1.0000E+30  1.0000E+30  1.0000E+30
       1.0000E+30  1.0000E+30  1.0000E+30  1.0000E+30  1.0000E+30  1.0000E+30  1.0000E+30  1.0000E+30  1.0000E+30  1.0000E+30
       1.0000E+30  1.0000E+30  1.0000E+30  1.0000E+30  1.0000E+30  1.0000E+30  1.0000E+30  1.0000E+30  1.0000E+30  1.0000E+30
       1.0000E+30  1.0000E+30  1.0000E+30  1.0000E+30  1.0000E+30  1.0000E+30  1.0000E+30  1.0000E+30  1.0000E+30  1.0000E+30
       1.0000E+30  1.0000E+30  1.0000E+30  1.0000E+30  1.0000E+30  1.0000E+30  1.0000E+30  1.0000E+30  1.0000E+30  1.0000E+30
       1.0000E+30  1.0000E+30   0.000       0.000       0.000       0.000       0.000       0.000       0.000       0.000    
        0.000       0.000       0.000       0.000       0.000       0.000       0.000       0.000      1.0000E+30  1.0000E+30
  21   1.0000E+30  1.0000E+30  1.0000E+30  1.0000E+30  1.0000E+30  1.0000E+30  1.0000E+30  1.0000E+30  1.0000E+30  1.0000E+30
       1.0000E+30  1.0000E+30  1.0000E+30  1.0000E+30  1.0000E+30  1.0000E+30  1.0000E+30  1.0000E+30  1.0000E+30  1.0000E+30
       1.0000E+30  1.0000E+30  1.0000E+30  1.0000E+30  1.0000E+30  1.0000E+30  1.0000E+30  1.0000E+30  1.0000E+30  1.0000E+30
       1.0000E+30  1.0000E+30  1.0000E+30  1.0000E+30  1.0000E+30  1.0000E+30  1.0000E+30  1.0000E+30  1.0000E+30  1.0000E+30
       1.0000E+30  1.0000E+30  1.0000E+30  1.0000E+30  1.0000E+30  1.0000E+30  1.0000E+30  1.0000E+30  1.0000E+30  1.0000E+30
       1.0000E+30  1.0000E+30  1.0000E+30  1.0000E+30  1.0000E+30  1.0000E+30  1.0000E+30  1.0000E+30  1.0000E+30  1.0000E+30
       1.0000E+30  1.0000E+30  1.0000E+30  1.0000E+30  1.0000E+30  1.0000E+30  1.0000E+30  1.0000E+30  1.0000E+30  1.0000E+30
       1.0000E+30  1.0000E+30  1.0000E+30  1.0000E+30  1.0000E+30  1.0000E+30  1.0000E+30  1.0000E+30  1.0000E+30  1.0000E+30
       1.0000E+30  1.0000E+30  1.0000E+30  1.0000E+30  1.0000E+30  1.0000E+30  1.0000E+30  1.0000E+30  1.0000E+30  1.0000E+30
       1.0000E+30  1.0000E+30  1.0000E+30  1.0000E+30  1.0000E+30  1.0000E+30  1.0000E+30  1.0000E+30  1.0000E+30  1.0000E+30
       1.0000E+30  1.0000E+30  1.0000E+30  1.0000E+30  1.0000E+30  1.0000E+30  1.0000E+30  1.0000E+30  1.0000E+30  1.0000E+30
       1.0000E+30  1.0000E+30  1.0000E+30  1.0000E+30  1.0000E+30  1.0000E+30  1.0000E+30  1.0000E+30  1.0000E+30  1.0000E+30
       1.0000E+30  1.0000E+30  1.0000E+30  1.0000E+30  1.0000E+30  1.0000E+30  1.0000E+30  1.0000E+30  1.0000E+30  1.0000E+30
       1.0000E+30  1.0000E+30   0.000       0.000       0.000       0.000       0.000       0.000       0.000       0.000    
        0.000       0.000       0.000       0.000       0.000       0.000      1.0000E+30   0.000      1.0000E+30  1.0000E+30
  22   1.0000E+30  1.0000E+30  1.0000E+30  1.0000E+30  1.0000E+30  1.0000E+30  1.0000E+30  1.0000E+30  1.0000E+30  1.0000E+30
       1.0000E+30  1.0000E+30  1.0000E+30  1.0000E+30  1.0000E+30  1.0000E+30  1.0000E+30  1.0000E+30  1.0000E+30  1.0000E+30
       1.0000E+30  1.0000E+30  1.0000E+30  1.0000E+30  1.0000E+30  1.0000E+30  1.0000E+30  1.0000E+30  1.0000E+30  1.0000E+30
       1.0000E+30  1.0000E+30  1.0000E+30  1.0000E+30  1.0000E+30  1.0000E+30  1.0000E+30  1.0000E+30  1.0000E+30  1.0000E+30
       1.0000E+30  1.0000E+30  1.0000E+30  1.0000E+30  1.0000E+30  1.0000E+30  1.0000E+30  1.0000E+30  1.0000E+30  1.0000E+30
       1.0000E+30  1.0000E+30  1.0000E+30  1.0000E+30  1.0000E+30  1.0000E+30  1.0000E+30  1.0000E+30  1.0000E+30  1.0000E+30
       1.0000E+30  1.0000E+30  1.0000E+30  1.0000E+30  1.0000E+30  1.0000E+30  1.0000E+30  1.0000E+30  1.0000E+30  1.0000E+30
       1.0000E+30  1.0000E+30  1.0000E+30  1.0000E+30  1.0000E+30  1.0000E+30  1.0000E+30  1.0000E+30  1.0000E+30  1.0000E+30
       1.0000E+30  1.0000E+30  1.0000E+30  1.0000E+30  1.0000E+30  1.0000E+30  1.0000E+30  1.0000E+30  1.0000E+30  1.0000E+30
       1.0000E+30  1.0000E+30  1.0000E+30  1.0000E+30  1.0000E+30  1.0000E+30  1.0000E+30  1.0000E+30  1.0000E+30  1.0000E+30
       1.0000E+30  1.0000E+30  1.0000E+30  1.0000E+30  1.0000E+30  1.0000E+30  1.0000E+30  1.0000E+30  1.0000E+30  1.0000E+30
       1.0000E+30  1.0000E+30  1.0000E+30  1.0000E+30  1.0000E+30  1.0000E+30  1.0000E+30  1.0000E+30  1.0000E+30  1.0000E+30
       1.0000E+30  1.0000E+30  1.0000E+30  1.0000E+30  1.0000E+30  1.0000E+30  1.0000E+30  1.0000E+30  1.0000E+30  1.0000E+30
       1.0000E+30  1.0000E+30   0.000       0.000       0.000       0.000       0.000       0.000       0.000       0.000    
        0.000       0.000       0.000       0.000       0.000       0.000      1.0000E+30   0.000      1.0000E+30  1.0000E+30
  23   1.0000E+30  1.0000E+30  1.0000E+30  1.0000E+30  1.0000E+30  1.0000E+30  1.0000E+30  1.0000E+30  1.0000E+30  1.0000E+30
       1.0000E+30  1.0000E+30  1.0000E+30  1.0000E+30  1.0000E+30  1.0000E+30  1.0000E+30  1.0000E+30  1.0000E+30  1.0000E+30
       1.0000E+30  1.0000E+30  1.0000E+30  1.0000E+30  1.0000E+30  1.0000E+30  1.0000E+30  1.0000E+30  1.0000E+30  1.0000E+30
       1.0000E+30  1.0000E+30  1.0000E+30  1.0000E+30  1.0000E+30  1.0000E+30  1.0000E+30  1.0000E+30  1.0000E+30  1.0000E+30
       1.0000E+30  1.0000E+30  1.0000E+30  1.0000E+30  1.0000E+30  1.0000E+30  1.0000E+30  1.0000E+30  1.0000E+30  1.0000E+30
       1.0000E+30  1.0000E+30  1.0000E+30  1.0000E+30  1.0000E+30  1.0000E+30  1.0000E+30  1.0000E+30  1.0000E+30  1.0000E+30
       1.0000E+30  1.0000E+30  1.0000E+30  1.0000E+30  1.0000E+30  1.0000E+30  1.0000E+30  1.0000E+30  1.0000E+30  1.0000E+30
       1.0000E+30  1.0000E+30  1.0000E+30  1.0000E+30  1.0000E+30  1.0000E+30  1.0000E+30  1.0000E+30  1.0000E+30  1.0000E+30
       1.0000E+30  1.0000E+30  1.0000E+30  1.0000E+30  1.0000E+30  1.0000E+30  1.0000E+30  1.0000E+30  1.0000E+30  1.0000E+30
       1.0000E+30  1.0000E+30  1.0000E+30  1.0000E+30  1.0000E+30  1.0000E+30  1.0000E+30  1.0000E+30  1.0000E+30  1.0000E+30
       1.0000E+30  1.0000E+30  1.0000E+30  1.0000E+30  1.0000E+30  1.0000E+30  1.0000E+30  1.0000E+30  1.0000E+30  1.0000E+30
       1.0000E+30  1.0000E+30  1.0000E+30  1.0000E+30  1.0000E+30  1.0000E+30  1.0000E+30  1.0000E+30  1.0000E+30  1.0000E+30
       1.0000E+30  1.0000E+30  1.0000E+30  1.0000E+30  1.0000E+30  1.0000E+30  1.0000E+30  1.0000E+30  1.0000E+30  1.0000E+30
       1.0000E+30  1.0000E+30   0.000       0.000       0.000       0.000       0.000       0.000       0.000       0.000    
        0.000       0.000       0.000       0.000       0.000      1.0000E+30  1.0000E+30   0.000      1.0000E+30  1.0000E+30
  24   1.0000E+30  1.0000E+30  1.0000E+30  1.0000E+30  1.0000E+30  1.0000E+30  1.0000E+30  1.0000E+30  1.0000E+30  1.0000E+30
       1.0000E+30  1.0000E+30  1.0000E+30  1.0000E+30  1.0000E+30  1.0000E+30  1.0000E+30  1.0000E+30  1.0000E+30  1.0000E+30
       1.0000E+30  1.0000E+30  1.0000E+30  1.0000E+30  1.0000E+30  1.0000E+30  1.0000E+30  1.0000E+30  1.0000E+30  1.0000E+30
       1.0000E+30  1.0000E+30  1.0000E+30  1.0000E+30  1.0000E+30  1.0000E+30  1.0000E+30  1.0000E+30  1.0000E+30  1.0000E+30
       1.0000E+30  1.0000E+30  1.0000E+30  1.0000E+30  1.0000E+30  1.0000E+30  1.0000E+30  1.0000E+30  1.0000E+30  1.0000E+30
       1.0000E+30  1.0000E+30  1.0000E+30  1.0000E+30  1.0000E+30  1.0000E+30  1.0000E+30  1.0000E+30  1.0000E+30  1.0000E+30
       1.0000E+30  1.0000E+30  1.0000E+30  1.0000E+30  1.0000E+30  1.0000E+30  1.0000E+30  1.0000E+30  1.0000E+30  1.0000E+30
       1.0000E+30  1.0000E+30  1.0000E+30  1.0000E+30  1.0000E+30  1.0000E+30  1.0000E+30  1.0000E+30  1.0000E+30  1.0000E+30
       1.0000E+30  1.0000E+30  1.0000E+30  1.0000E+30  1.0000E+30  1.0000E+30  1.0000E+30  1.0000E+30  1.0000E+30  1.0000E+30
       1.0000E+30  1.0000E+30  1.0000E+30  1.0000E+30  1.0000E+30  1.0000E+30  1.0000E+30  1.0000E+30  1.0000E+30  1.0000E+30
       1.0000E+30  1.0000E+30  1.0000E+30  1.0000E+30  1.0000E+30  1.0000E+30  1.0000E+30  1.0000E+30  1.0000E+30  1.0000E+30
       1.0000E+30  1.0000E+30  1.0000E+30  1.0000E+30  1.0000E+30  1.0000E+30  1.0000E+30  1.0000E+30  1.0000E+30  1.0000E+30
       1.0000E+30  1.0000E+30  1.0000E+30  1.0000E+30  1.0000E+30  1.0000E+30  1.0000E+30  1.0000E+30  1.0000E+30  1.0000E+30
       1.0000E+30  1.0000E+30   0.000       0.000       0.000       0.000       0.000       0.000       0.000       0.000    
        0.000       0.000       0.000       0.000       0.000      1.0000E+30  1.0000E+30   0.000      1.0000E+30  1.0000E+30
  25   1.0000E+30  1.0000E+30  1.0000E+30  1.0000E+30  1.0000E+30  1.0000E+30  1.0000E+30  1.0000E+30  1.0000E+30  1.0000E+30
       1.0000E+30  1.0000E+30  1.0000E+30  1.0000E+30  1.0000E+30  1.0000E+30  1.0000E+30  1.0000E+30  1.0000E+30  1.0000E+30
       1.0000E+30  1.0000E+30  1.0000E+30  1.0000E+30  1.0000E+30  1.0000E+30  1.0000E+30  1.0000E+30  1.0000E+30  1.0000E+30
       1.0000E+30  1.0000E+30  1.0000E+30  1.0000E+30  1.0000E+30  1.0000E+30  1.0000E+30  1.0000E+30  1.0000E+30  1.0000E+30
       1.0000E+30  1.0000E+30  1.0000E+30  1.0000E+30  1.0000E+30  1.0000E+30  1.0000E+30  1.0000E+30  1.0000E+30  1.0000E+30
       1.0000E+30  1.0000E+30  1.0000E+30  1.0000E+30  1.0000E+30  1.0000E+30  1.0000E+30  1.0000E+30  1.0000E+30  1.0000E+30
       1.0000E+30  1.0000E+30  1.0000E+30  1.0000E+30  1.0000E+30  1.0000E+30  1.0000E+30  1.0000E+30  1.0000E+30  1.0000E+30
       1.0000E+30  1.0000E+30  1.0000E+30  1.0000E+30  1.0000E+30  1.0000E+30  1.0000E+30  1.0000E+30  1.0000E+30  1.0000E+30
       1.0000E+30  1.0000E+30  1.0000E+30  1.0000E+30  1.0000E+30  1.0000E+30  1.0000E+30  1.0000E+30  1.0000E+30  1.0000E+30
       1.0000E+30  1.0000E+30  1.0000E+30  1.0000E+30  1.0000E+30  1.0000E+30  1.0000E+30  1.0000E+30  1.0000E+30  1.0000E+30
       1.0000E+30  1.0000E+30  1.0000E+30  1.0000E+30  1.0000E+30  1.0000E+30  1.0000E+30  1.0000E+30  1.0000E+30  1.0000E+30
       1.0000E+30  1.0000E+30  1.0000E+30  1.0000E+30  1.0000E+30  1.0000E+30  1.0000E+30  1.0000E+30  1.0000E+30  1.0000E+30
       1.0000E+30  1.0000E+30  1.0000E+30  1.0000E+30  1.0000E+30  1.0000E+30  1.0000E+30  1.0000E+30  1.0000E+30  1.0000E+30
       1.0000E+30  1.0000E+30  1.0000E+30   0.000       0.000       0.000       0.000       0.000       0.000       0.000    
        0.000       0.000       0.000       0.000      1.0000E+30  1.0000E+30  1.0000E+30   0.000      1.0000E+30  1.0000E+30
  26   1.0000E+30  1.0000E+30  1.0000E+30  1.0000E+30  1.0000E+30  1.0000E+30  1.0000E+30  1.0000E+30  1.0000E+30  1.0000E+30
       1.0000E+30  1.0000E+30  1.0000E+30  1.0000E+30  1.0000E+30  1.0000E+30  1.0000E+30  1.0000E+30  1.0000E+30  1.0000E+30
       1.0000E+30  1.0000E+30  1.0000E+30  1.0000E+30  1.0000E+30  1.0000E+30  1.0000E+30  1.0000E+30  1.0000E+30  1.0000E+30
       1.0000E+30  1.0000E+30  1.0000E+30  1.0000E+30  1.0000E+30  1.0000E+30  1.0000E+30  1.0000E+30  1.0000E+30  1.0000E+30
       1.0000E+30  1.0000E+30  1.0000E+30  1.0000E+30  1.0000E+30  1.0000E+30  1.0000E+30  1.0000E+30  1.0000E+30  1.0000E+30
       1.0000E+30  1.0000E+30  1.0000E+30  1.0000E+30  1.0000E+30  1.0000E+30  1.0000E+30  1.0000E+30  1.0000E+30  1.0000E+30
       1.0000E+30  1.0000E+30  1.0000E+30  1.0000E+30  1.0000E+30  1.0000E+30  1.0000E+30  1.0000E+30  1.0000E+30  1.0000E+30
       1.0000E+30  1.0000E+30  1.0000E+30  1.0000E+30  1.0000E+30  1.0000E+30  1.0000E+30  1.0000E+30  1.0000E+30  1.0000E+30
       1.0000E+30  1.0000E+30  1.0000E+30  1.0000E+30  1.0000E+30  1.0000E+30  1.0000E+30  1.0000E+30  1.0000E+30  1.0000E+30
       1.0000E+30  1.0000E+30  1.0000E+30  1.0000E+30  1.0000E+30  1.0000E+30  1.0000E+30  1.0000E+30  1.0000E+30  1.0000E+30
       1.0000E+30  1.0000E+30  1.0000E+30  1.0000E+30  1.0000E+30  1.0000E+30  1.0000E+30  1.0000E+30  1.0000E+30  1.0000E+30
       1.0000E+30  1.0000E+30  1.0000E+30  1.0000E+30  1.0000E+30  1.0000E+30  1.0000E+30  1.0000E+30  1.0000E+30  1.0000E+30
       1.0000E+30  1.0000E+30  1.0000E+30  1.0000E+30  1.0000E+30  1.0000E+30  1.0000E+30  1.0000E+30  1.0000E+30  1.0000E+30
       1.0000E+30  1.0000E+30  1.0000E+30   0.000       0.000       0.000       0.000       0.000       0.000       0.000    
        0.000       0.000       0.000       0.000      1.0000E+30  1.0000E+30   0.000       0.000      1.0000E+30  1.0000E+30
  27   1.0000E+30  1.0000E+30  1.0000E+30  1.0000E+30  1.0000E+30  1.0000E+30  1.0000E+30  1.0000E+30  1.0000E+30  1.0000E+30
       1.0000E+30  1.0000E+30  1.0000E+30  1.0000E+30  1.0000E+30  1.0000E+30  1.0000E+30  1.0000E+30  1.0000E+30  1.0000E+30
       1.0000E+30  1.0000E+30  1.0000E+30  1.0000E+30  1.0000E+30  1.0000E+30  1.0000E+30  1.0000E+30  1.0000E+30  1.0000E+30
       1.0000E+30  1.0000E+30  1.0000E+30  1.0000E+30  1.0000E+30  1.0000E+30  1.0000E+30  1.0000E+30  1.0000E+30  1.0000E+30
       1.0000E+30  1.0000E+30  1.0000E+30  1.0000E+30  1.0000E+30  1.0000E+30  1.0000E+30  1.0000E+30  1.0000E+30  1.0000E+30
       1.0000E+30  1.0000E+30  1.0000E+30  1.0000E+30  1.0000E+30  1.0000E+30  1.0000E+30  1.0000E+30  1.0000E+30  1.0000E+30
       1.0000E+30  1.0000E+30  1.0000E+30  1.0000E+30  1.0000E+30  1.0000E+30  1.0000E+30  1.0000E+30  1.0000E+30  1.0000E+30
       1.0000E+30  1.0000E+30  1.0000E+30  1.0000E+30  1.0000E+30  1.0000E+30  1.0000E+30  1.0000E+30  1.0000E+30  1.0000E+30
       1.0000E+30  1.0000E+30  1.0000E+30  1.0000E+30  1.0000E+30  1.0000E+30  1.0000E+30  1.0000E+30  1.0000E+30  1.0000E+30
       1.0000E+30  1.0000E+30  1.0000E+30  1.0000E+30  1.0000E+30  1.0000E+30  1.0000E+30  1.0000E+30  1.0000E+30  1.0000E+30
       1.0000E+30  1.0000E+30  1.0000E+30  1.0000E+30  1.0000E+30  1.0000E+30  1.0000E+30  1.0000E+30  1.0000E+30  1.0000E+30
       1.0000E+30  1.0000E+30  1.0000E+30  1.0000E+30  1.0000E+30  1.0000E+30  1.0000E+30  1.0000E+30  1.0000E+30  1.0000E+30
       1.0000E+30  1.0000E+30  1.0000E+30  1.0000E+30  1.0000E+30  1.0000E+30  1.0000E+30  1.0000E+30  1.0000E+30  1.0000E+30
       1.0000E+30   0.000       0.000       0.000       0.000       0.000       0.000       0.000       0.000       0.000    
        0.000       0.000       0.000      1.0000E+30  1.0000E+30  1.0000E+30   0.000      1.0000E+30  1.0000E+30  1.0000E+30
  28   1.0000E+30  1.0000E+30  1.0000E+30  1.0000E+30  1.0000E+30  1.0000E+30  1.0000E+30  1.0000E+30  1.0000E+30  1.0000E+30
       1.0000E+30  1.0000E+30  1.0000E+30  1.0000E+30  1.0000E+30  1.0000E+30  1.0000E+30  1.0000E+30  1.0000E+30  1.0000E+30
       1.0000E+30  1.0000E+30  1.0000E+30  1.0000E+30  1.0000E+30  1.0000E+30  1.0000E+30  1.0000E+30  1.0000E+30  1.0000E+30
       1.0000E+30  1.0000E+30  1.0000E+30  1.0000E+30  1.0000E+30  1.0000E+30  1.0000E+30  1.0000E+30  1.0000E+30  1.0000E+30
       1.0000E+30  1.0000E+30  1.0000E+30  1.0000E+30  1.0000E+30  1.0000E+30  1.0000E+30  1.0000E+30  1.0000E+30  1.0000E+30
       1.0000E+30  1.0000E+30  1.0000E+30  1.0000E+30  1.0000E+30  1.0000E+30  1.0000E+30  1.0000E+30  1.0000E+30  1.0000E+30
       1.0000E+30  1.0000E+30  1.0000E+30  1.0000E+30  1.0000E+30  1.0000E+30  1.0000E+30  1.0000E+30  1.0000E+30  1.0000E+30
       1.0000E+30  1.0000E+30  1.0000E+30  1.0000E+30  1.0000E+30  1.0000E+30  1.0000E+30  1.0000E+30  1.0000E+30  1.0000E+30
       1.0000E+30  1.0000E+30  1.0000E+30  1.0000E+30  1.0000E+30  1.0000E+30  1.0000E+30  1.0000E+30  1.0000E+30  1.0000E+30
       1.0000E+30  1.0000E+30  1.0000E+30  1.0000E+30  1.0000E+30  1.0000E+30  1.0000E+30  1.0000E+30  1.0000E+30  1.0000E+30
       1.0000E+30  1.0000E+30  1.0000E+30  1.0000E+30  1.0000E+30  1.0000E+30  1.0000E+30  1.0000E+30  1.0000E+30  1.0000E+30
       1.0000E+30  1.0000E+30  1.0000E+30  1.0000E+30  1.0000E+30  1.0000E+30  1.0000E+30  1.0000E+30  1.0000E+30  1.0000E+30
       1.0000E+30  1.0000E+30  1.0000E+30  1.0000E+30  1.0000E+30  1.0000E+30  1.0000E+30  1.0000E+30  1.0000E+30  1.0000E+30
       1.0000E+30   0.000       0.000       0.000       0.000       0.000       0.000       0.000       0.000       0.000    
        0.000       0.000      1.0000E+30  1.0000E+30  1.0000E+30  1.0000E+30   0.000      1.0000E+30  1.0000E+30  1.0000E+30
  29   1.0000E+30  1.0000E+30  1.0000E+30  1.0000E+30  1.0000E+30  1.0000E+30  1.0000E+30  1.0000E+30  1.0000E+30  1.0000E+30
       1.0000E+30  1.0000E+30  1.0000E+30  1.0000E+30  1.0000E+30  1.0000E+30  1.0000E+30  1.0000E+30  1.0000E+30  1.0000E+30
       1.0000E+30  1.0000E+30  1.0000E+30  1.0000E+30  1.0000E+30  1.0000E+30  1.0000E+30  1.0000E+30  1.0000E+30  1.0000E+30
       1.0000E+30  1.0000E+30  1.0000E+30  1.0000E+30  1.0000E+30  1.0000E+30  1.0000E+30  1.0000E+30  1.0000E+30  1.0000E+30
       1.0000E+30  1.0000E+30  1.0000E+30  1.0000E+30  1.0000E+30  1.0000E+30  1.0000E+30  1.0000E+30  1.0000E+30  1.0000E+30
       1.0000E+30  1.0000E+30  1.0000E+30  1.0000E+30  1.0000E+30  1.0000E+30  1.0000E+30  1.0000E+30  1.0000E+30  1.0000E+30
       1.0000E+30  1.0000E+30  1.0000E+30  1.0000E+30  1.0000E+30  1.0000E+30  1.0000E+30  1.0000E+30  1.0000E+30  1.0000E+30
       1.0000E+30  1.0000E+30  1.0000E+30  1.0000E+30  1.0000E+30  1.0000E+30  1.0000E+30  1.0000E+30  1.0000E+30  1.0000E+30
       1.0000E+30  1.0000E+30  1.0000E+30  1.0000E+30  1.0000E+30  1.0000E+30  1.0000E+30  1.0000E+30  1.0000E+30  1.0000E+30
       1.0000E+30  1.0000E+30  1.0000E+30  1.0000E+30  1.0000E+30  1.0000E+30  1.0000E+30  1.0000E+30  1.0000E+30  1.0000E+30
       1.0000E+30  1.0000E+30  1.0000E+30  1.0000E+30  1.0000E+30  1.0000E+30  1.0000E+30  1.0000E+30  1.0000E+30  1.0000E+30
       1.0000E+30  1.0000E+30  1.0000E+30  1.0000E+30  1.0000E+30  1.0000E+30  1.0000E+30  1.0000E+30  1.0000E+30  1.0000E+30
       1.0000E+30  1.0000E+30  1.0000E+30  1.0000E+30  1.0000E+30  1.0000E+30  1.0000E+30  1.0000E+30  0.4988      0.4525    
        0.000       0.000       0.000       0.000       0.000       0.000       0.000       0.000       0.000       0.000    
        0.000       0.000      1.0000E+30  1.0000E+30  1.0000E+30  1.0000E+30   0.000      1.0000E+30  1.0000E+30  1.0000E+30
  30   1.0000E+30  1.0000E+30  1.0000E+30  1.0000E+30  1.0000E+30  1.0000E+30  1.0000E+30  1.0000E+30  1.0000E+30  1.0000E+30
       1.0000E+30  1.0000E+30  1.0000E+30  1.0000E+30  1.0000E+30  1.0000E+30  1.0000E+30  1.0000E+30  1.0000E+30  1.0000E+30
       1.0000E+30  1.0000E+30  1.0000E+30  1.0000E+30  1.0000E+30  1.0000E+30  1.0000E+30  1.0000E+30  1.0000E+30  1.0000E+30
       1.0000E+30  1.0000E+30  1.0000E+30  1.0000E+30  1.0000E+30  1.0000E+30  1.0000E+30  1.0000E+30  1.0000E+30  1.0000E+30
       1.0000E+30  1.0000E+30  1.0000E+30  1.0000E+30  1.0000E+30  1.0000E+30  1.0000E+30  1.0000E+30  1.0000E+30  1.0000E+30
       1.0000E+30  1.0000E+30  1.0000E+30  1.0000E+30  1.0000E+30  1.0000E+30  1.0000E+30  1.0000E+30  1.0000E+30  1.0000E+30
       1.0000E+30  1.0000E+30  1.0000E+30  1.0000E+30  1.0000E+30  1.0000E+30  1.0000E+30  1.0000E+30  1.0000E+30  1.0000E+30
       1.0000E+30  1.0000E+30  1.0000E+30  1.0000E+30  1.0000E+30  1.0000E+30  1.0000E+30  1.0000E+30  1.0000E+30  1.0000E+30
       1.0000E+30  1.0000E+30  1.0000E+30  1.0000E+30  1.0000E+30  1.0000E+30  1.0000E+30  1.0000E+30  1.0000E+30  1.0000E+30
       1.0000E+30  1.0000E+30  1.0000E+30  1.0000E+30  1.0000E+30  1.0000E+30  1.0000E+30  1.0000E+30  1.0000E+30  1.0000E+30
       1.0000E+30  1.0000E+30  1.0000E+30  1.0000E+30  1.0000E+30  1.0000E+30  1.0000E+30  1.0000E+30  1.0000E+30  1.0000E+30
       1.0000E+30  1.0000E+30  1.0000E+30  1.0000E+30  1.0000E+30  1.0000E+30  1.0000E+30  1.0000E+30  1.0000E+30  1.0000E+30
       1.0000E+30  1.0000E+30  1.0000E+30  1.0000E+30  1.0000E+30  1.0000E+30  0.4720      0.4681      0.4284       0.000    
        0.000       0.000       0.000       0.000       0.000       0.000       0.000       0.000       0.000       0.000    
        0.000      1.0000E+30  1.0000E+30  1.0000E+30  1.0000E+30  1.0000E+30   0.000      1.0000E+30  1.0000E+30  1.0000E+30
  31   1.0000E+30  1.0000E+30  1.0000E+30  1.0000E+30  1.0000E+30  1.0000E+30  1.0000E+30  1.0000E+30  1.0000E+30  1.0000E+30
       1.0000E+30  1.0000E+30  1.0000E+30  1.0000E+30  1.0000E+30  1.0000E+30  1.0000E+30  1.0000E+30  1.0000E+30  1.0000E+30
       1.0000E+30  1.0000E+30  1.0000E+30  1.0000E+30  1.0000E+30  1.0000E+30  1.0000E+30  1.0000E+30  1.0000E+30  1.0000E+30
       1.0000E+30  1.0000E+30  1.0000E+30  1.0000E+30  1.0000E+30  1.0000E+30  1.0000E+30  1.0000E+30  1.0000E+30  1.0000E+30
       1.0000E+30  1.0000E+30  1.0000E+30  1.0000E+30  1.0000E+30  1.0000E+30  1.0000E+30  1.0000E+30  1.0000E+30  1.0000E+30
       1.0000E+30  1.0000E+30  1.0000E+30  1.0000E+30  1.0000E+30  1.0000E+30  1.0000E+30  1.0000E+30  1.0000E+30  1.0000E+30
       1.0000E+30  1.0000E+30  1.0000E+30  1.0000E+30  1.0000E+30  1.0000E+30  1.0000E+30  1.0000E+30  1.0000E+30  1.0000E+30
       1.0000E+30  1.0000E+30  1.0000E+30  1.0000E+30  1.0000E+30  1.0000E+30  1.0000E+30  1.0000E+30  1.0000E+30  1.0000E+30
       1.0000E+30  1.0000E+30  1.0000E+30  1.0000E+30  1.0000E+30  1.0000E+30  1.0000E+30  1.0000E+30  1.0000E+30  1.0000E+30
       1.0000E+30  1.0000E+30  1.0000E+30  1.0000E+30  1.0000E+30  1.0000E+30  1.0000E+30  1.0000E+30  1.0000E+30  1.0000E+30
       1.0000E+30  1.0000E+30  1.0000E+30  1.0000E+30  1.0000E+30  1.0000E+30  1.0000E+30  1.0000E+30  1.0000E+30  1.0000E+30
       1.0000E+30  1.0000E+30  1.0000E+30  1.0000E+30  1.0000E+30  1.0000E+30  1.0000E+30  1.0000E+30  1.0000E+30  1.0000E+30
       1.0000E+30  1.0000E+30  1.0000E+30  1.0000E+30  0.5733      0.5356       0.000       0.000       0.000       0.000    
        0.000       0.000       0.000       0.000       0.000       0.000       0.000       0.000       0.000       0.000    
        0.000      1.0000E+30  1.0000E+30  1.0000E+30  1.0000E+30  1.0000E+30   0.000      1.0000E+30  1.0000E+30  1.0000E+30
  32   1.0000E+30  1.0000E+30  1.0000E+30  1.0000E+30  1.0000E+30  1.0000E+30  1.0000E+30  1.0000E+30  1.0000E+30  1.0000E+30
       1.0000E+30  1.0000E+30  1.0000E+30  1.0000E+30  1.0000E+30  1.0000E+30  1.0000E+30  1.0000E+30  1.0000E+30  1.0000E+30
       1.0000E+30  1.0000E+30  1.0000E+30  1.0000E+30  1.0000E+30  1.0000E+30  1.0000E+30  1.0000E+30  1.0000E+30  1.0000E+30
       1.0000E+30  1.0000E+30  1.0000E+30  1.0000E+30  1.0000E+30  1.0000E+30  1.0000E+30  1.0000E+30  1.0000E+30  1.0000E+30
       1.0000E+30  1.0000E+30  1.0000E+30  1.0000E+30  1.0000E+30  1.0000E+30  1.0000E+30  1.0000E+30  1.0000E+30  1.0000E+30
       1.0000E+30  1.0000E+30  1.0000E+30  1.0000E+30  1.0000E+30  1.0000E+30  1.0000E+30  1.0000E+30  1.0000E+30  1.0000E+30
       1.0000E+30  1.0000E+30  1.0000E+30  1.0000E+30  1.0000E+30  1.0000E+30  1.0000E+30  1.0000E+30  1.0000E+30  1.0000E+30
       1.0000E+30  1.0000E+30  1.0000E+30  1.0000E+30  1.0000E+30  1.0000E+30  1.0000E+30  1.0000E+30  1.0000E+30  1.0000E+30
       1.0000E+30  1.0000E+30  1.0000E+30  1.0000E+30  1.0000E+30  1.0000E+30  1.0000E+30  1.0000E+30  1.0000E+30  1.0000E+30
       1.0000E+30  1.0000E+30  1.0000E+30  1.0000E+30  1.0000E+30  1.0000E+30  1.0000E+30  1.0000E+30  1.0000E+30  1.0000E+30
       1.0000E+30  1.0000E+30  1.0000E+30  1.0000E+30  1.0000E+30  1.0000E+30  1.0000E+30  1.0000E+30  1.0000E+30  1.0000E+30
       1.0000E+30  1.0000E+30  1.0000E+30  1.0000E+30  1.0000E+30  1.0000E+30  1.0000E+30  1.0000E+30  1.0000E+30  1.0000E+30
       1.0000E+30  0.4961      0.5125      0.5566      0.5331      0.4914       0.000       0.000       0.000       0.000    
        0.000       0.000       0.000       0.000       0.000       0.000       0.000       0.000       0.000       0.000    
        0.000      1.0000E+30  1.0000E+30  1.0000E+30  1.0000E+30  1.0000E+30   0.000      1.0000E+30  1.0000E+30  1.0000E+30
  33   1.0000E+30  1.0000E+30  1.0000E+30  1.0000E+30  1.0000E+30  1.0000E+30  1.0000E+30  1.0000E+30  1.0000E+30  1.0000E+30
       1.0000E+30  1.0000E+30  1.0000E+30  1.0000E+30  1.0000E+30  1.0000E+30  1.0000E+30  1.0000E+30  1.0000E+30  1.0000E+30
       1.0000E+30  1.0000E+30  1.0000E+30  1.0000E+30  1.0000E+30  1.0000E+30  1.0000E+30  1.0000E+30  1.0000E+30  1.0000E+30
       1.0000E+30  1.0000E+30  1.0000E+30  1.0000E+30  1.0000E+30  1.0000E+30  1.0000E+30  1.0000E+30  1.0000E+30  1.0000E+30
       1.0000E+30  1.0000E+30  1.0000E+30  1.0000E+30  1.0000E+30  1.0000E+30  1.0000E+30  1.0000E+30  1.0000E+30  1.0000E+30
       1.0000E+30  1.0000E+30  1.0000E+30  1.0000E+30  1.0000E+30  1.0000E+30  1.0000E+30  1.0000E+30  1.0000E+30  1.0000E+30
       1.0000E+30  1.0000E+30  1.0000E+30  1.0000E+30  1.0000E+30  1.0000E+30  1.0000E+30  1.0000E+30  1.0000E+30  1.0000E+30
       1.0000E+30  1.0000E+30  1.0000E+30  1.0000E+30  1.0000E+30  1.0000E+30  1.0000E+30  1.0000E+30  1.0000E+30  1.0000E+30
       1.0000E+30  1.0000E+30  1.0000E+30  1.0000E+30  1.0000E+30  1.0000E+30  1.0000E+30  1.0000E+30  1.0000E+30  1.0000E+30
       1.0000E+30  1.0000E+30  1.0000E+30  1.0000E+30  1.0000E+30  1.0000E+30  1.0000E+30  1.0000E+30  1.0000E+30  1.0000E+30
       1.0000E+30  1.0000E+30  1.0000E+30  1.0000E+30  1.0000E+30  1.0000E+30  1.0000E+30  1.0000E+30  1.0000E+30  1.0000E+30
       1.0000E+30  1.0000E+30  1.0000E+30  1.0000E+30  1.0000E+30  1.0000E+30  1.0000E+30  1.0000E+30  1.0000E+30  1.0000E+30
       0.2061      0.4026      0.4080      0.4713      0.4360       0.000       0.000       0.000       0.000       0.000    
        0.000       0.000       0.000       0.000       0.000       0.000       0.000       0.000       0.000      1.0000E+30
        0.000       0.000      1.0000E+30  1.0000E+30  1.0000E+30   0.000       0.000      1.0000E+30  1.0000E+30  1.0000E+30
  34   1.0000E+30  1.0000E+30  1.0000E+30  1.0000E+30  1.0000E+30  1.0000E+30  1.0000E+30  1.0000E+30  1.0000E+30  1.0000E+30
       1.0000E+30  1.0000E+30  1.0000E+30  1.0000E+30  1.0000E+30  1.0000E+30  1.0000E+30  1.0000E+30  1.0000E+30  1.0000E+30
       1.0000E+30  1.0000E+30  1.0000E+30  1.0000E+30  1.0000E+30  1.0000E+30  1.0000E+30  1.0000E+30  1.0000E+30  1.0000E+30
       1.0000E+30  1.0000E+30  1.0000E+30  1.0000E+30  1.0000E+30  1.0000E+30  1.0000E+30  1.0000E+30  1.0000E+30  1.0000E+30
       1.0000E+30  1.0000E+30  1.0000E+30  1.0000E+30  1.0000E+30  1.0000E+30  1.0000E+30  1.0000E+30  1.0000E+30  1.0000E+30
       1.0000E+30  1.0000E+30  1.0000E+30  1.0000E+30  1.0000E+30  1.0000E+30  1.0000E+30  1.0000E+30  1.0000E+30  1.0000E+30
       1.0000E+30  1.0000E+30  1.0000E+30  1.0000E+30  1.0000E+30  1.0000E+30  1.0000E+30  1.0000E+30  1.0000E+30  1.0000E+30
       1.0000E+30  1.0000E+30  1.0000E+30  1.0000E+30  1.0000E+30  1.0000E+30  1.0000E+30  1.0000E+30  1.0000E+30  1.0000E+30
       1.0000E+30  1.0000E+30  1.0000E+30  1.0000E+30  1.0000E+30  1.0000E+30  1.0000E+30  1.0000E+30  1.0000E+30  1.0000E+30
       1.0000E+30  1.0000E+30  1.0000E+30  1.0000E+30  1.0000E+30  1.0000E+30  1.0000E+30  1.0000E+30  1.0000E+30  1.0000E+30
       1.0000E+30  1.0000E+30  1.0000E+30  1.0000E+30  1.0000E+30  1.0000E+30  1.0000E+30  1.0000E+30  1.0000E+30  1.0000E+30
       1.0000E+30  1.0000E+30  1.0000E+30  1.0000E+30  1.0000E+30  1.0000E+30  1.0000E+30  1.0000E+30  1.0000E+30  1.0000E+30
       0.6044      0.4522      0.2194       0.000       0.000       0.000       0.000       0.000       0.000       0.000    
        0.000       0.000       0.000       0.000       0.000       0.000       0.000       0.000       0.000       0.000    
        0.000       0.000      1.0000E+30  1.0000E+30  1.0000E+30   0.000      1.0000E+30  1.0000E+30  1.0000E+30  1.0000E+30
  35   1.0000E+30  1.0000E+30  1.0000E+30  1.0000E+30  1.0000E+30  1.0000E+30  1.0000E+30  1.0000E+30  1.0000E+30  1.0000E+30
       1.0000E+30  1.0000E+30  1.0000E+30  1.0000E+30  1.0000E+30  1.0000E+30  1.0000E+30  1.0000E+30  1.0000E+30  1.0000E+30
       1.0000E+30  1.0000E+30  1.0000E+30  1.0000E+30  1.0000E+30  1.0000E+30  1.0000E+30  1.0000E+30  1.0000E+30  1.0000E+30
       1.0000E+30  1.0000E+30  1.0000E+30  1.0000E+30  1.0000E+30  1.0000E+30  1.0000E+30  1.0000E+30  1.0000E+30  1.0000E+30
       1.0000E+30  1.0000E+30  1.0000E+30  1.0000E+30  1.0000E+30  1.0000E+30  1.0000E+30  1.0000E+30  1.0000E+30  1.0000E+30
       1.0000E+30  1.0000E+30  1.0000E+30  1.0000E+30  1.0000E+30  1.0000E+30  1.0000E+30  1.0000E+30  1.0000E+30  1.0000E+30
       1.0000E+30  1.0000E+30  1.0000E+30  1.0000E+30  1.0000E+30  1.0000E+30  1.0000E+30  1.0000E+30  1.0000E+30  1.0000E+30
       1.0000E+30  1.0000E+30  1.0000E+30  1.0000E+30  1.0000E+30  1.0000E+30  1.0000E+30  1.0000E+30  1.0000E+30  1.0000E+30
       1.0000E+30  1.0000E+30  1.0000E+30  1.0000E+30  1.0000E+30  1.0000E+30  1.0000E+30  1.0000E+30  1.0000E+30  1.0000E+30
       1.0000E+30  1.0000E+30  1.0000E+30  1.0000E+30  1.0000E+30  1.0000E+30  1.0000E+30  1.0000E+30  1.0000E+30  1.0000E+30
       1.0000E+30  1.0000E+30  1.0000E+30  1.0000E+30  1.0000E+30  1.0000E+30  1.0000E+30  1.0000E+30  1.0000E+30  1.0000E+30
       1.0000E+30  1.0000E+30   5.591       5.239       4.687       3.939       3.115       2.455       1.936       1.448    
       0.9098      0.3826       0.000       0.000       0.000       0.000       0.000       0.000       0.000       0.000    
        0.000       0.000       0.000       0.000       0.000       0.000       0.000       0.000       0.000       0.000    
        0.000       0.000       0.000      1.0000E+30  1.0000E+30   0.000      1.0000E+30  1.0000E+30  1.0000E+30  1.0000E+30
[...]
       1.0000E+30  1.0000E+30  1.0000E+30  1.0000E+30  1.0000E+30  1.0000E+30  1.0000E+30  1.0000E+30  1.0000E+30  1.0000E+30
       1.0000E+30  1.0000E+30  1.0000E+30  1.0000E+30  1.0000E+30  1.0000E+30  1.0000E+30  1.0000E+30  1.0000E+30  1.0000E+30
       1.0000E+30  1.0000E+30  1.0000E+30  1.0000E+30  1.0000E+30  1.0000E+30  1.0000E+30  1.0000E+30  1.0000E+30  1.0000E+30
       1.0000E+30  1.0000E+30  1.0000E+30  1.0000E+30  1.0000E+30  1.0000E+30  1.0000E+30  1.0000E+30  1.0000E+30  1.0000E+30
       1.0000E+30  1.0000E+30  1.0000E+30  1.0000E+30  1.0000E+30  1.0000E+30  1.0000E+30  1.0000E+30  1.0000E+30  1.0000E+30
       1.0000E+30  1.0000E+30  1.0000E+30  1.0000E+30  1.0000E+30  1.0000E+30  1.0000E+30  1.0000E+30  1.0000E+30  1.0000E+30
       1.0000E+30  1.0000E+30  1.0000E+30  1.0000E+30  1.0000E+30  1.0000E+30  1.0000E+30  1.0000E+30  1.0000E+30  1.0000E+30
       1.0000E+30  1.0000E+30  1.0000E+30  1.0000E+30  1.0000E+30  1.0000E+30  1.0000E+30  1.0000E+30  1.0000E+30  1.0000E+30
       1.0000E+30  1.0000E+30  1.0000E+30  1.0000E+30  1.0000E+30  1.0000E+30  1.0000E+30  1.0000E+30  1.0000E+30  1.0000E+30
 176   1.0000E+30  1.0000E+30  1.0000E+30  1.0000E+30  1.0000E+30  1.0000E+30  1.0000E+30  1.0000E+30  1.0000E+30  1.0000E+30
       1.0000E+30  1.0000E+30  1.0000E+30  1.0000E+30  1.0000E+30  1.0000E+30  1.0000E+30  1.0000E+30  1.0000E+30  1.0000E+30
       1.0000E+30  1.0000E+30  1.0000E+30  1.0000E+30  1.0000E+30  1.0000E+30  1.0000E+30  1.0000E+30  1.0000E+30  1.0000E+30
       1.0000E+30  1.0000E+30  1.0000E+30  1.0000E+30  1.0000E+30  1.0000E+30  1.0000E+30  1.0000E+30  1.0000E+30  1.0000E+30
       1.0000E+30  1.0000E+30  1.0000E+30  1.0000E+30  1.0000E+30  1.0000E+30  1.0000E+30  1.0000E+30  1.0000E+30  1.0000E+30
       1.0000E+30  1.0000E+30  1.0000E+30  1.0000E+30  1.0000E+30  1.0000E+30  1.0000E+30  1.0000E+30  1.0000E+30  1.0000E+30
       1.0000E+30  1.0000E+30  1.0000E+30  1.0000E+30  1.0000E+30  1.0000E+30  1.0000E+30  1.0000E+30  1.0000E+30  1.0000E+30
       1.0000E+30  1.0000E+30  1.0000E+30  1.0000E+30  1.0000E+30  1.0000E+30  1.0000E+30  1.0000E+30  1.0000E+30  1.0000E+30
       1.0000E+30  1.0000E+30  1.0000E+30  1.0000E+30  1.0000E+30  1.0000E+30  1.0000E+30  1.0000E+30  1.0000E+30  1.0000E+30
       1.0000E+30  1.0000E+30  1.0000E+30  1.0000E+30  1.0000E+30  1.0000E+30  1.0000E+30  1.0000E+30  1.0000E+30  1.0000E+30
       1.0000E+30  1.0000E+30  1.0000E+30  1.0000E+30  1.0000E+30  1.0000E+30  1.0000E+30  1.0000E+30  1.0000E+30  1.0000E+30
       1.0000E+30  1.0000E+30  1.0000E+30  1.0000E+30  1.0000E+30  1.0000E+30  1.0000E+30  1.0000E+30  1.0000E+30  1.0000E+30
       1.0000E+30  1.0000E+30  1.0000E+30  1.0000E+30  1.0000E+30  1.0000E+30  1.0000E+30  1.0000E+30  1.0000E+30  1.0000E+30
       1.0000E+30  1.0000E+30  1.0000E+30  1.0000E+30  1.0000E+30  1.0000E+30  1.0000E+30  1.0000E+30  1.0000E+30  1.0000E+30
       1.0000E+30  1.0000E+30  1.0000E+30  1.0000E+30  1.0000E+30  1.0000E+30  1.0000E+30  1.0000E+30  1.0000E+30  1.0000E+30
 177   1.0000E+30  1.0000E+30  1.0000E+30  1.0000E+30  1.0000E+30  1.0000E+30  1.0000E+30  1.0000E+30  1.0000E+30  1.0000E+30
       1.0000E+30  1.0000E+30  1.0000E+30  1.0000E+30  1.0000E+30  1.0000E+30  1.0000E+30  1.0000E+30  1.0000E+30  1.0000E+30
       1.0000E+30  1.0000E+30  1.0000E+30  1.0000E+30  1.0000E+30  1.0000E+30  1.0000E+30  1.0000E+30  1.0000E+30  1.0000E+30
       1.0000E+30  1.0000E+30  1.0000E+30  1.0000E+30  1.0000E+30  1.0000E+30  1.0000E+30  1.0000E+30  1.0000E+30  1.0000E+30
       1.0000E+30  1.0000E+30  1.0000E+30  1.0000E+30  1.0000E+30  1.0000E+30  1.0000E+30  1.0000E+30  1.0000E+30  1.0000E+30
       1.0000E+30  1.0000E+30  1.0000E+30  1.0000E+30  1.0000E+30  1.0000E+30  1.0000E+30  1.0000E+30  1.0000E+30  1.0000E+30
       1.0000E+30  1.0000E+30  1.0000E+30  1.0000E+30  1.0000E+30  1.0000E+30  1.0000E+30  1.0000E+30  1.0000E+30  1.0000E+30
       1.0000E+30  1.0000E+30  1.0000E+30  1.0000E+30  1.0000E+30  1.0000E+30  1.0000E+30  1.0000E+30  1.0000E+30  1.0000E+30
       1.0000E+30  1.0000E+30  1.0000E+30  1.0000E+30  1.0000E+30  1.0000E+30  1.0000E+30  1.0000E+30  1.0000E+30  1.0000E+30
       1.0000E+30  1.0000E+30  1.0000E+30  1.0000E+30  1.0000E+30  1.0000E+30  1.0000E+30  1.0000E+30  1.0000E+30  1.0000E+30
       1.0000E+30  1.0000E+30  1.0000E+30  1.0000E+30  1.0000E+30  1.0000E+30  1.0000E+30  1.0000E+30  1.0000E+30  1.0000E+30
       1.0000E+30  1.0000E+30  1.0000E+30  1.0000E+30  1.0000E+30  1.0000E+30  1.0000E+30  1.0000E+30  1.0000E+30  1.0000E+30
       1.0000E+30  1.0000E+30  1.0000E+30  1.0000E+30  1.0000E+30  1.0000E+30  1.0000E+30  1.0000E+30  1.0000E+30  1.0000E+30
       1.0000E+30  1.0000E+30  1.0000E+30  1.0000E+30  1.0000E+30  1.0000E+30  1.0000E+30  1.0000E+30  1.0000E+30  1.0000E+30
       1.0000E+30  1.0000E+30  1.0000E+30  1.0000E+30  1.0000E+30  1.0000E+30  1.0000E+30  1.0000E+30  1.0000E+30  1.0000E+30
 178   1.0000E+30  1.0000E+30  1.0000E+30  1.0000E+30  1.0000E+30  1.0000E+30  1.0000E+30  1.0000E+30  1.0000E+30  1.0000E+30
       1.0000E+30  1.0000E+30  1.0000E+30  1.0000E+30  1.0000E+30  1.0000E+30  1.0000E+30  1.0000E+30  1.0000E+30  1.0000E+30
       1.0000E+30  1.0000E+30  1.0000E+30  1.0000E+30  1.0000E+30  1.0000E+30  1.0000E+30  1.0000E+30  1.0000E+30  1.0000E+30
       1.0000E+30  1.0000E+30  1.0000E+30  1.0000E+30  1.0000E+30  1.0000E+30  1.0000E+30  1.0000E+30  1.0000E+30  1.0000E+30
       1.0000E+30  1.0000E+30  1.0000E+30  1.0000E+30  1.0000E+30  1.0000E+30  1.0000E+30  1.0000E+30  1.0000E+30  1.0000E+30
       1.0000E+30  1.0000E+30  1.0000E+30  1.0000E+30  1.0000E+30  1.0000E+30  1.0000E+30  1.0000E+30  1.0000E+30  1.0000E+30
       1.0000E+30  1.0000E+30  1.0000E+30  1.0000E+30  1.0000E+30  1.0000E+30  1.0000E+30  1.0000E+30  1.0000E+30  1.0000E+30
       1.0000E+30  1.0000E+30  1.0000E+30  1.0000E+30  1.0000E+30  1.0000E+30  1.0000E+30  1.0000E+30  1.0000E+30  1.0000E+30
       1.0000E+30  1.0000E+30  1.0000E+30  1.0000E+30  1.0000E+30  1.0000E+30  1.0000E+30  1.0000E+30  1.0000E+30  1.0000E+30
       1.0000E+30  1.0000E+30  1.0000E+30  1.0000E+30  1.0000E+30  1.0000E+30  1.0000E+30  1.0000E+30  1.0000E+30  1.0000E+30
       1.0000E+30  1.0000E+30  1.0000E+30  1.0000E+30  1.0000E+30  1.0000E+30  1.0000E+30  1.0000E+30  1.0000E+30  1.0000E+30
       1.0000E+30  1.0000E+30  1.0000E+30  1.0000E+30  1.0000E+30  1.0000E+30  1.0000E+30  1.0000E+30  1.0000E+30  1.0000E+30
       1.0000E+30  1.0000E+30  1.0000E+30  1.0000E+30  1.0000E+30  1.0000E+30  1.0000E+30  1.0000E+30  1.0000E+30  1.0000E+30
       1.0000E+30  1.0000E+30  1.0000E+30  1.0000E+30  1.0000E+30  1.0000E+30  1.0000E+30  1.0000E+30  1.0000E+30  1.0000E+30
       1.0000E+30  1.0000E+30  1.0000E+30  1.0000E+30  1.0000E+30  1.0000E+30  1.0000E+30  1.0000E+30  1.0000E+30  1.0000E+30
 179   1.0000E+30  1.0000E+30  1.0000E+30  1.0000E+30  1.0000E+30  1.0000E+30  1.0000E+30  1.0000E+30  1.0000E+30  1.0000E+30
       1.0000E+30  1.0000E+30  1.0000E+30  1.0000E+30  1.0000E+30  1.0000E+30  1.0000E+30  1.0000E+30  1.0000E+30  1.0000E+30
       1.0000E+30  1.0000E+30  1.0000E+30  1.0000E+30  1.0000E+30  1.0000E+30  1.0000E+30  1.0000E+30  1.0000E+30  1.0000E+30
       1.0000E+30  1.0000E+30  1.0000E+30  1.0000E+30  1.0000E+30  1.0000E+30  1.0000E+30  1.0000E+30  1.0000E+30  1.0000E+30
       1.0000E+30  1.0000E+30  1.0000E+30  1.0000E+30  1.0000E+30  1.0000E+30  1.0000E+30  1.0000E+30  1.0000E+30  1.0000E+30
       1.0000E+30  1.0000E+30  1.0000E+30  1.0000E+30  1.0000E+30  1.0000E+30  1.0000E+30  1.0000E+30  1.0000E+30  1.0000E+30
       1.0000E+30  1.0000E+30  1.0000E+30  1.0000E+30  1.0000E+30  1.0000E+30  1.0000E+30  1.0000E+30  1.0000E+30  1.0000E+30
       1.0000E+30  1.0000E+30  1.0000E+30  1.0000E+30  1.0000E+30  1.0000E+30  1.0000E+30  1.0000E+30  1.0000E+30  1.0000E+30
       1.0000E+30  1.0000E+30  1.0000E+30  1.0000E+30  1.0000E+30  1.0000E+30  1.0000E+30  1.0000E+30  1.0000E+30  1.0000E+30
       1.0000E+30  1.0000E+30  1.0000E+30  1.0000E+30  1.0000E+30  1.0000E+30  1.0000E+30  1.0000E+30  1.0000E+30  1.0000E+30
       1.0000E+30  1.0000E+30  1.0000E+30  1.0000E+30  1.0000E+30  1.0000E+30  1.0000E+30  1.0000E+30  1.0000E+30  1.0000E+30
       1.0000E+30  1.0000E+30  1.0000E+30  1.0000E+30  1.0000E+30  1.0000E+30  1.0000E+30  1.0000E+30  1.0000E+30  1.0000E+30
       1.0000E+30  1.0000E+30  1.0000E+30  1.0000E+30  1.0000E+30  1.0000E+30  1.0000E+30  1.0000E+30  1.0000E+30  1.0000E+30
       1.0000E+30  1.0000E+30  1.0000E+30  1.0000E+30  1.0000E+30  1.0000E+30  1.0000E+30  1.0000E+30  1.0000E+30  1.0000E+30
       1.0000E+30  1.0000E+30  1.0000E+30  1.0000E+30  1.0000E+30  1.0000E+30  1.0000E+30  1.0000E+30  1.0000E+30  1.0000E+30
 180   1.0000E+30  1.0000E+30  1.0000E+30  1.0000E+30  1.0000E+30  1.0000E+30  1.0000E+30  1.0000E+30  1.0000E+30  1.0000E+30
       1.0000E+30  1.0000E+30  1.0000E+30  1.0000E+30  1.0000E+30  1.0000E+30  1.0000E+30  1.0000E+30  1.0000E+30  1.0000E+30
       1.0000E+30  1.0000E+30  1.0000E+30  1.0000E+30  1.0000E+30  1.0000E+30  1.0000E+30  1.0000E+30  1.0000E+30  1.0000E+30
       1.0000E+30  1.0000E+30  1.0000E+30  1.0000E+30  1.0000E+30  1.0000E+30  1.0000E+30  1.0000E+30  1.0000E+30  1.0000E+30
       1.0000E+30  1.0000E+30  1.0000E+30  1.0000E+30  1.0000E+30  1.0000E+30  1.0000E+30  1.0000E+30  1.0000E+30  1.0000E+30
       1.0000E+30  1.0000E+30  1.0000E+30  1.0000E+30  1.0000E+30  1.0000E+30  1.0000E+30  1.0000E+30  1.0000E+30  1.0000E+30
       1.0000E+30  1.0000E+30  1.0000E+30  1.0000E+30  1.0000E+30  1.0000E+30  1.0000E+30  1.0000E+30  1.0000E+30  1.0000E+30
       1.0000E+30  1.0000E+30  1.0000E+30  1.0000E+30  1.0000E+30  1.0000E+30  1.0000E+30  1.0000E+30  1.0000E+30  1.0000E+30
       1.0000E+30  1.0000E+30  1.0000E+30  1.0000E+30  1.0000E+30  1.0000E+30  1.0000E+30  1.0000E+30  1.0000E+30  1.0000E+30
       1.0000E+30  1.0000E+30  1.0000E+30  1.0000E+30  1.0000E+30  1.0000E+30  1.0000E+30  1.0000E+30  1.0000E+30  1.0000E+30
       1.0000E+30  1.0000E+30  1.0000E+30  1.0000E+30  1.0000E+30  1.0000E+30  1.0000E+30  1.0000E+30  1.0000E+30  1.0000E+30
       1.0000E+30  1.0000E+30  1.0000E+30  1.0000E+30  1.0000E+30  1.0000E+30  1.0000E+30  1.0000E+30  1.0000E+30  1.0000E+30
       1.0000E+30  1.0000E+30  1.0000E+30  1.0000E+30  1.0000E+30  1.0000E+30  1.0000E+30  1.0000E+30  1.0000E+30  1.0000E+30
       1.0000E+30  1.0000E+30  1.0000E+30  1.0000E+30  1.0000E+30  1.0000E+30  1.0000E+30  1.0000E+30  1.0000E+30  1.0000E+30
       1.0000E+30  1.0000E+30  1.0000E+30  1.0000E+30  1.0000E+30  1.0000E+30  1.0000E+30  1.0000E+30  1.0000E+30  1.0000E+30
 181   1.0000E+30  1.0000E+30  1.0000E+30  1.0000E+30  1.0000E+30  1.0000E+30  1.0000E+30  1.0000E+30  1.0000E+30  1.0000E+30
       1.0000E+30  1.0000E+30  1.0000E+30  1.0000E+30  1.0000E+30  1.0000E+30  1.0000E+30  1.0000E+30  1.0000E+30  1.0000E+30
       1.0000E+30  1.0000E+30  1.0000E+30  1.0000E+30  1.0000E+30  1.0000E+30  1.0000E+30  1.0000E+30  1.0000E+30  1.0000E+30
       1.0000E+30  1.0000E+30  1.0000E+30  1.0000E+30  1.0000E+30  1.0000E+30  1.0000E+30  1.0000E+30  1.0000E+30  1.0000E+30
       1.0000E+30  1.0000E+30  1.0000E+30  1.0000E+30  1.0000E+30  1.0000E+30  1.0000E+30  1.0000E+30  1.0000E+30  1.0000E+30
       1.0000E+30  1.0000E+30  1.0000E+30  1.0000E+30  1.0000E+30  1.0000E+30  1.0000E+30  1.0000E+30  1.0000E+30  1.0000E+30
       1.0000E+30  1.0000E+30  1.0000E+30  1.0000E+30  1.0000E+30  1.0000E+30  1.0000E+30  1.0000E+30  1.0000E+30  1.0000E+30
       1.0000E+30  1.0000E+30  1.0000E+30  1.0000E+30  1.0000E+30  1.0000E+30  1.0000E+30  1.0000E+30  1.0000E+30  1.0000E+30
       1.0000E+30  1.0000E+30  1.0000E+30  1.0000E+30  1.0000E+30  1.0000E+30  1.0000E+30  1.0000E+30  1.0000E+30  1.0000E+30
       1.0000E+30  1.0000E+30  1.0000E+30  1.0000E+30  1.0000E+30  1.0000E+30  1.0000E+30  1.0000E+30  1.0000E+30  1.0000E+30
       1.0000E+30  1.0000E+30  1.0000E+30  1.0000E+30  1.0000E+30  1.0000E+30  1.0000E+30  1.0000E+30  1.0000E+30  1.0000E+30
       1.0000E+30  1.0000E+30  1.0000E+30  1.0000E+30  1.0000E+30  1.0000E+30  1.0000E+30  1.0000E+30  1.0000E+30  1.0000E+30
       1.0000E+30  1.0000E+30  1.0000E+30  1.0000E+30  1.0000E+30  1.0000E+30  1.0000E+30  1.0000E+30  1.0000E+30  1.0000E+30
       1.0000E+30  1.0000E+30  1.0000E+30  1.0000E+30  1.0000E+30  1.0000E+30  1.0000E+30  1.0000E+30  1.0000E+30  1.0000E+30
       1.0000E+30  1.0000E+30  1.0000E+30  1.0000E+30  1.0000E+30  1.0000E+30  1.0000E+30  1.0000E+30  1.0000E+30  1.0000E+30
 182   1.0000E+30  1.0000E+30  1.0000E+30  1.0000E+30  1.0000E+30  1.0000E+30  1.0000E+30  1.0000E+30  1.0000E+30  1.0000E+30
       1.0000E+30  1.0000E+30  1.0000E+30  1.0000E+30  1.0000E+30  1.0000E+30  1.0000E+30  1.0000E+30  1.0000E+30  1.0000E+30
       1.0000E+30  1.0000E+30  1.0000E+30  1.0000E+30  1.0000E+30  1.0000E+30  1.0000E+30  1.0000E+30  1.0000E+30  1.0000E+30
       1.0000E+30  1.0000E+30  1.0000E+30  1.0000E+30  1.0000E+30  1.0000E+30  1.0000E+30  1.0000E+30  1.0000E+30  1.0000E+30
       1.0000E+30  1.0000E+30  1.0000E+30  1.0000E+30  1.0000E+30  1.0000E+30  1.0000E+30  1.0000E+30  1.0000E+30  1.0000E+30
       1.0000E+30  1.0000E+30  1.0000E+30  1.0000E+30  1.0000E+30  1.0000E+30  1.0000E+30  1.0000E+30  1.0000E+30  1.0000E+30
       1.0000E+30  1.0000E+30  1.0000E+30  1.0000E+30  1.0000E+30  1.0000E+30  1.0000E+30  1.0000E+30  1.0000E+30  1.0000E+30
       1.0000E+30  1.0000E+30  1.0000E+30  1.0000E+30  1.0000E+30  1.0000E+30  1.0000E+30  1.0000E+30  1.0000E+30  1.0000E+30
       1.0000E+30  1.0000E+30  1.0000E+30  1.0000E+30  1.0000E+30  1.0000E+30  1.0000E+30  1.0000E+30  1.0000E+30  1.0000E+30
       1.0000E+30  1.0000E+30  1.0000E+30  1.0000E+30  1.0000E+30  1.0000E+30  1.0000E+30  1.0000E+30  1.0000E+30  1.0000E+30
       1.0000E+30  1.0000E+30  1.0000E+30  1.0000E+30  1.0000E+30  1.0000E+30  1.0000E+30  1.0000E+30  1.0000E+30  1.0000E+30
       1.0000E+30  1.0000E+30  1.0000E+30  1.0000E+30  1.0000E+30  1.0000E+30  1.0000E+30  1.0000E+30  1.0000E+30  1.0000E+30
       1.0000E+30  1.0000E+30  1.0000E+30  1.0000E+30  1.0000E+30  1.0000E+30  1.0000E+30  1.0000E+30  1.0000E+30  1.0000E+30
       1.0000E+30  1.0000E+30  1.0000E+30  1.0000E+30  1.0000E+30  1.0000E+30  1.0000E+30  1.0000E+30  1.0000E+30  1.0000E+30
       1.0000E+30  1.0000E+30  1.0000E+30  1.0000E+30  1.0000E+30  1.0000E+30  1.0000E+30  1.0000E+30  1.0000E+30  1.0000E+30
 183   1.0000E+30  1.0000E+30  1.0000E+30  1.0000E+30  1.0000E+30  1.0000E+30  1.0000E+30  1.0000E+30  1.0000E+30  1.0000E+30
       1.0000E+30  1.0000E+30  1.0000E+30  1.0000E+30  1.0000E+30  1.0000E+30  1.0000E+30  1.0000E+30  1.0000E+30  1.0000E+30
       1.0000E+30  1.0000E+30  1.0000E+30  1.0000E+30  1.0000E+30  1.0000E+30  1.0000E+30  1.0000E+30  1.0000E+30  1.0000E+30
       1.0000E+30  1.0000E+30  1.0000E+30  1.0000E+30  1.0000E+30  1.0000E+30  1.0000E+30  1.0000E+30  1.0000E+30  1.0000E+30
       1.0000E+30  1.0000E+30  1.0000E+30  1.0000E+30  1.0000E+30  1.0000E+30  1.0000E+30  1.0000E+30  1.0000E+30  1.0000E+30
       1.0000E+30  1.0000E+30  1.0000E+30  1.0000E+30  1.0000E+30  1.0000E+30  1.0000E+30  1.0000E+30  1.0000E+30  1.0000E+30
       1.0000E+30  1.0000E+30  1.0000E+30  1.0000E+30  1.0000E+30  1.0000E+30  1.0000E+30  1.0000E+30  1.0000E+30  1.0000E+30
       1.0000E+30  1.0000E+30  1.0000E+30  1.0000E+30  1.0000E+30  1.0000E+30  1.0000E+30  1.0000E+30  1.0000E+30  1.0000E+30
       1.0000E+30  1.0000E+30  1.0000E+30  1.0000E+30  1.0000E+30  1.0000E+30  1.0000E+30  1.0000E+30  1.0000E+30  1.0000E+30
       1.0000E+30  1.0000E+30  1.0000E+30  1.0000E+30  1.0000E+30  1.0000E+30  1.0000E+30  1.0000E+30  1.0000E+30  1.0000E+30
       1.0000E+30  1.0000E+30  1.0000E+30  1.0000E+30  1.0000E+30  1.0000E+30  1.0000E+30  1.0000E+30  1.0000E+30  1.0000E+30
       1.0000E+30  1.0000E+30  1.0000E+30  1.0000E+30  1.0000E+30  1.0000E+30  1.0000E+30  1.0000E+30  1.0000E+30  1.0000E+30
       1.0000E+30  1.0000E+30  1.0000E+30  1.0000E+30  1.0000E+30  1.0000E+30  1.0000E+30  1.0000E+30  1.0000E+30  1.0000E+30
       1.0000E+30  1.0000E+30  1.0000E+30  1.0000E+30  1.0000E+30  1.0000E+30  1.0000E+30  1.0000E+30  1.0000E+30  1.0000E+30
       1.0000E+30  1.0000E+30  1.0000E+30  1.0000E+30  1.0000E+30  1.0000E+30  1.0000E+30  1.0000E+30  1.0000E+30  1.0000E+30

 HEAD WILL BE SAVED ON UNIT 1023 AT END OF TIME STEP    1, STRESS PERIOD    1


  VOLUME BUDGET FOR ENTIRE MODEL AT END OF TIME STEP    1, STRESS PERIOD   1
  ---------------------------------------------------------------------------------------------------

     CUMULATIVE VOLUME      L**3       RATES FOR THIS TIME STEP      L**3/T          PACKAGE NAME    
     ------------------                 ------------------------                     ----------------

           IN:                                      IN:
           ---                                      ---
                 WEL =           0.0000                   WEL =           0.0000     WEL             
                 RIV =       9.9683E-03                   RIV =       9.9683E-03     AGLY            
                 RIV =           0.1225                   RIV =           0.1225     TET             
                 RIV =       9.5477E-02                   RIV =       9.5477E-02     REA             
                 RIV =           0.1110                   RIV =           0.1110     CANT            
                 RIV =       9.6564E-03                   RIV =       9.6564E-03     TECH            
                 RIV =           0.5640                   RIV =           0.5640     BOL             
                 RCH =           3.1271                   RCH =           3.1271     RCH_0           
                 CHD =       2.6510E-03                   CHD =       2.6510E-03     SEA             
                 CHD =           2.1407                   CHD =           2.1407     PLIO            
                 CHD =       1.3910E-02                   CHD =       1.3910E-02     ETA             

            TOTAL IN =           6.1971              TOTAL IN =           6.1971

          OUT:                                     OUT:
          ----                                     ----
                 WEL =           1.5063                   WEL =           1.5063     WEL             
                 RIV =           0.2253                   RIV =           0.2253     AGLY            
                 RIV =           3.1674                   RIV =           3.1674     TET             
                 RIV =           0.1822                   RIV =           0.1822     REA             
                 RIV =       9.4797E-02                   RIV =       9.4797E-02     CANT            
                 RIV =           0.2660                   RIV =           0.2660     TECH            
                 RIV =       2.5353E-02                   RIV =       2.5353E-02     BOL             
                 RCH =           0.0000                   RCH =           0.0000     RCH_0           
                 CHD =           0.3832                   CHD =           0.3832     SEA             
                 CHD =       4.8256E-05                   CHD =       4.8256E-05     PLIO            
                 CHD =           0.3565                   CHD =           0.3565     ETA             

           TOTAL OUT =           6.2071             TOTAL OUT =           6.2071

            IN - OUT =      -1.0023E-02              IN - OUT =      -1.0023E-02

 PERCENT DISCREPANCY =          -0.16     PERCENT DISCREPANCY =          -0.16




         TIME SUMMARY AT END OF TIME STEP    1 IN STRESS PERIOD    1
                    SECONDS     MINUTES      HOURS       DAYS        YEARS
                    -----------------------------------------------------------
   TIME STEP LENGTH  1.0000     1.66667E-02 2.77778E-04 1.15741E-05 3.16881E-08
 STRESS PERIOD TIME  1.0000     1.66667E-02 2.77778E-04 1.15741E-05 3.16881E-08
         TOTAL TIME  1.0000     1.66667E-02 2.77778E-04 1.15741E-05 3.16881E-08
