                                   MODFLOW 6
                U.S. GEOLOGICAL SURVEY MODULAR HYDROLOGIC MODEL
                            VERSION 6.0.4 03/13/2019

   MODFLOW 6 compiled Mar 21 2019 15:37:31 with IFORT compiler (ver. 19.0.0)

This software has been approved for release by the U.S. Geological 
Survey (USGS). Although the software has been subjected to rigorous 
review, the USGS reserves the right to update the software as needed 
pursuant to further analysis and review. No warranty, expressed or 
implied, is made by the USGS or the U.S. Government as to the 
functionality of the software and related material nor shall the 
fact of release constitute any such warranty. Furthermore, the 
software is released on condition that neither the USGS nor the U.S. 
Government shall be held liable for any damages resulting from its 
authorized or unauthorized use. Also refer to the USGS Water 
Resources Software User Rights Notice for complete use, copyright, 
and distribution information.


System command used to initiate simulation:
../../exe/mf6

MODFLOW was compiled using uniform precision.
Real Variables
  PRECISION: 15
  KIND: 8
  TINY (smallest non-zero value):    2.225074-308
  HUGE (largest value):    1.797693+308
Integer Variables
  KIND: 4
  HUGE (largest value): 2147483647
  BIT_SIZE: 32
 

 OPENED mfsim.nam
 FILE TYPE:NAM   UNIT 1001   STATUS:OLD                 
 FORMAT:FORMATTED              ACCESS:SEQUENTIAL          
 ACTION:READ                


 READING SIMULATION OPTIONS
 END OF SIMULATION OPTIONS

 READING SIMULATION TIMING

 OPENED first3D_mf6.tdis
 FILE TYPE:TDIS   UNIT 1002   STATUS:OLD                 
 FORMAT:FORMATTED              ACCESS:SEQUENTIAL          
 ACTION:READ                


 TDIS -- TEMPORAL DISCRETIZATION PACKAGE,
 VERSION 1 : 11/13/2014 - INPUT READ FROM UNIT 1002
 PROCESSING TDIS OPTIONS
    SIMULATION TIME UNIT IS SECONDS
 END OF TDIS OPTIONS
 PROCESSING TDIS DIMENSIONS
    1 STRESS PERIOD(S) IN SIMULATION
 END OF TDIS DIMENSIONS
 PROCESSING TDIS PERIODDATA


 STRESS PERIOD     LENGTH       TIME STEPS     MULTIPLIER FOR DELT
 ----------------------------------------------------------------------------
        1         1.000000          1                    1.000
 END OF TDIS PERIODDATA
 END OF SIMULATION TIMING

 READING SIMULATION MODELS
    GWF6 model TEST_3D will be created as model 1
 END OF SIMULATION MODELS

 READING SIMULATION EXCHANGES
 END OF SIMULATION EXCHANGES

 READING SOLUTIONGROUP

 Creating solution: SLN_1           

 OPENED first3D_mf6.ims
 FILE TYPE:IMS   UNIT 1016   STATUS:OLD                 
 FORMAT:FORMATTED              ACCESS:SEQUENTIAL          
 ACTION:READ                

 END OF SIMULATION SOLUTIONGROUP

ERROR REPORT:

 ERROR. CELL (1,12,150) THICKNESS <= 0. TOP, BOT:     1.35576473000000        
   6.15000010000000
 ERROR. CELL (1,13,150) THICKNESS <= 0. TOP, BOT:    -1.85633026000000       
   -1.54999995000000
 ERROR. CELL (1,39,112) THICKNESS <= 0. TOP, BOT:     12.0541633700000        
   12.5000000000000
 ERROR. CELL (1,40,112) THICKNESS <= 0. TOP, BOT:     8.96397790000000        
   10.1600198700000
 ERROR. CELL (1,43,108) THICKNESS <= 0. TOP, BOT:     26.7219233400000        
   26.9816703800000
 ERROR. CELL (1,51,93) THICKNESS <= 0. TOP, BOT:     53.1914315300000        
   53.5000000000000
 ERROR. CELL (1,60,90) THICKNESS <= 0. TOP, BOT:     26.9493769700000        
   26.9574699400000
 ERROR. CELL (1,70,88) THICKNESS <= 0. TOP, BOT:     53.0146009300000        
   53.7117118800000
 ERROR. CELL (1,72,76) THICKNESS <= 0. TOP, BOT:     127.534732150000        
   132.633407590000
 ERROR. CELL (1,72,107) THICKNESS <= 0. TOP, BOT:     14.5450927400000        
   14.8734903300000
 ERROR. CELL (1,73,77) THICKNESS <= 0. TOP, BOT:     112.640808500000        
   113.612297060000
 ERROR. CELL (1,74,100) THICKNESS <= 0. TOP, BOT:     35.8682621300000        
   36.4856681800000
 ERROR. CELL (1,75,94) THICKNESS <= 0. TOP, BOT:     55.9639779000000        
   56.0000000000000
 ERROR. CELL (1,81,64) THICKNESS <= 0. TOP, BOT:     157.095715770000        
   157.381103520000
 ERROR. CELL (1,81,78) THICKNESS <= 0. TOP, BOT:     101.534732150000        
   104.684402470000
 ERROR. CELL (1,81,79) THICKNESS <= 0. TOP, BOT:     103.418885160000        
   103.968299870000
 ERROR. CELL (1,84,57) THICKNESS <= 0. TOP, BOT:     174.534732150000        
   175.835296630000
 ERROR. CELL (1,84,58) THICKNESS <= 0. TOP, BOT:     167.923125510000        
   177.500000000000
 ERROR. CELL (1,84,61) THICKNESS <= 0. TOP, BOT:     141.554163370000        
   143.435302730000
 ERROR. CELL (1,85,58) THICKNESS <= 0. TOP, BOT:     151.913354870000        
   152.500000000000
 ERROR. CELL (1,85,75) THICKNESS <= 0. TOP, BOT:     104.262185790000        
   105.347602840000
 ERROR. CELL (1,85,78) THICKNESS <= 0. TOP, BOT:     90.9639779000000        
   91.0000000000000
 ERROR. CELL (1,85,95) THICKNESS <= 0. TOP, BOT:     51.5957157700000        
   51.8842887900000
 ERROR. CELL (1,85,97) THICKNESS <= 0. TOP, BOT:     42.0596936700000        
   42.5000000000000
 ERROR. CELL (1,86,73) THICKNESS <= 0. TOP, BOT:     101.660939730000        
   102.000000000000
 ERROR. CELL (1,86,80) THICKNESS <= 0. TOP, BOT:     83.2725463700000        
   83.3946685800000
 ERROR. CELL (1,86,94) THICKNESS <= 0. TOP, BOT:     48.9188851600000        
   49.2565193200000
 ERROR. CELL (1,87,70) THICKNESS <= 0. TOP, BOT:     103.812108810000        
   104.773002620000
 ERROR. CELL (1,87,90) THICKNESS <= 0. TOP, BOT:     52.6103167000000        
   53.0000000000000
 ERROR. CELL (1,88,79) THICKNESS <= 0. TOP, BOT:     66.6768306000000        
   67.0000000000000
 ERROR. CELL (1,90,43) THICKNESS <= 0. TOP, BOT:     117.484809130000        
   118.000000000000
 ERROR. CELL (1,90,44) THICKNESS <= 0. TOP, BOT:     113.054863380000        
   114.000000000000
 ERROR. CELL (1,90,45) THICKNESS <= 0. TOP, BOT:     108.624917630000        
   110.000000000000
 ERROR. CELL (1,90,47) THICKNESS <= 0. TOP, BOT:     107.711562760000        
   108.000000000000
 ERROR. CELL (1,90,57) THICKNESS <= 0. TOP, BOT:     101.686601240000        
   102.000000000000
 ERROR. CELL (1,90,58) THICKNESS <= 0. TOP, BOT:     98.7115627600000        
   99.8911666900000
 ERROR. CELL (1,90,59) THICKNESS <= 0. TOP, BOT:     96.7420545600000        
   101.789100650000
 ERROR. CELL (1,90,60) THICKNESS <= 0. TOP, BOT:     105.437726440000        
   111.000000000000
 ERROR. CELL (1,91,119) THICKNESS <= 0. TOP, BOT:     28.3682621300000        
   29.4355793000000
 ERROR. CELL (1,91,127) THICKNESS <= 0. TOP, BOT:     19.8017482300000        
   21.1859607700000
 ERROR. CELL (1,92,40) THICKNESS <= 0. TOP, BOT:     112.918885160000        
   113.500000000000
 ERROR. CELL (1,92,92) THICKNESS <= 0. TOP, BOT:     40.6463388000000        
   40.7872200000000
 ERROR. CELL (1,93,53) THICKNESS <= 0. TOP, BOT:     92.8987539400000        
   92.9768219000000
 ERROR. CELL (1,93,119) THICKNESS <= 0. TOP, BOT:     42.4188851600000        
   42.8863410900000
 ERROR. CELL (1,94,60) THICKNESS <= 0. TOP, BOT:     83.0957157700000        
   83.6417465200000
 ERROR. CELL (1,94,87) THICKNESS <= 0. TOP, BOT:     48.3377703300000        
   48.5064201400000
 ERROR. CELL (1,94,123) THICKNESS <= 0. TOP, BOT:     28.2420545600000        
   28.7529201500000
 ERROR. CELL (1,94,125) THICKNESS <= 0. TOP, BOT:     26.1158469900000        
   26.7760105100000
 ERROR. CELL (1,95,74) THICKNESS <= 0. TOP, BOT:     64.3231694000000        
   64.4773864700000
 ERROR. CELL (1,95,75) THICKNESS <= 0. TOP, BOT:     63.3231694000000        
   63.4826393100000
 ERROR. CELL (1,96,119) THICKNESS <= 0. TOP, BOT:     41.7725463700000        
   41.8337287900000
 ERROR. CELL (1,96,138) THICKNESS <= 0. TOP, BOT:     3.66093973000000        
   4.00000000000000
 ERROR. CELL (1,96,139) THICKNESS <= 0. TOP, BOT:     1.09571577000000        
   2.50000000000000
 ERROR. CELL (1,96,141) THICKNESS <= 0. TOP, BOT:     4.61031670000000        
   5.95228386000000
 ERROR. CELL (1,97,32) THICKNESS <= 0. TOP, BOT:     133.276086710000        
   134.500000000000
 ERROR. CELL (1,98,125) THICKNESS <= 0. TOP, BOT:     19.2060324600000        
   20.0000000000000
 ERROR. CELL (1,99,118) THICKNESS <= 0. TOP, BOT:     27.0652239600000        
   27.4162597700000
 ERROR. CELL (1,102,24) THICKNESS <= 0. TOP, BOT:     145.220633390000        
   147.000000000000
 ERROR. CELL (1,102,35) THICKNESS <= 0. TOP, BOT:     139.045092740000        
   139.086395260000
 ERROR. CELL (1,102,113) THICKNESS <= 0. TOP, BOT:     28.5957157700000       
    28.8964805600000
 ERROR. CELL (1,102,121) THICKNESS <= 0. TOP, BOT:     16.9750384900000       
    17.5000000000000
 ERROR. CELL (1,102,122) THICKNESS <= 0. TOP, BOT:     13.0395624400000       
    13.9340896600000
 ERROR. CELL (1,103,23) THICKNESS <= 0. TOP, BOT:     150.236524270000        
   150.500000000000
 ERROR. CELL (1,104,22) THICKNESS <= 0. TOP, BOT:     152.242054560000        
   153.000000000000
 ERROR. CELL (1,104,120) THICKNESS <= 0. TOP, BOT:     16.7725463700000       
    16.9704208400000
 ERROR. CELL (1,105,26) THICKNESS <= 0. TOP, BOT:     167.488939410000        
   167.655502320000
 ERROR. CELL (1,106,17) THICKNESS <= 0. TOP, BOT:     197.952917310000        
   199.000000000000
 ERROR. CELL (1,106,26) THICKNESS <= 0. TOP, BOT:     171.868262130000        
   172.235000610000
 ERROR. CELL (1,107,25) THICKNESS <= 0. TOP, BOT:     175.090185470000        
   175.564102170000
 ERROR. CELL (1,108,113) THICKNESS <= 0. TOP, BOT:     23.4133548700000       
    23.5000000000000
 ERROR. CELL (1,109,87) THICKNESS <= 0. TOP, BOT:     74.2219233400000        
   74.2696609500000
 ERROR. CELL (1,109,88) THICKNESS <= 0. TOP, BOT:     69.6969618300000        
   69.8258209200000
 ERROR. CELL (1,110,104) THICKNESS <= 0. TOP, BOT:     48.3682621300000       
    48.6934890700000
 ERROR. CELL (1,111,103) THICKNESS <= 0. TOP, BOT:     44.6609397300000       
    45.8622093200000
 ERROR. CELL (1,111,105) THICKNESS <= 0. TOP, BOT:     39.9188851600000       
    40.0018692000000
 ERROR. CELL (1,112,92) THICKNESS <= 0. TOP, BOT:     68.4390163900000        
   68.5000000000000
 ERROR. CELL (1,112,102) THICKNESS <= 0. TOP, BOT:     42.0146009300000       
    43.0000000000000
 ERROR. CELL (1,113,94) THICKNESS <= 0. TOP, BOT:     64.4341861000000        
   65.0000000000000
 ERROR. CELL (1,113,101) THICKNESS <= 0. TOP, BOT:     41.2725463700000       
    41.5000000000000
 ERROR. CELL (1,114,97) THICKNESS <= 0. TOP, BOT:     58.8176391000000        
   58.9352493300000
 ERROR. CELL (1,114,98) THICKNESS <= 0. TOP, BOT:     50.9639779000000        
   51.0000000000000
 ERROR. CELL (1,114,106) THICKNESS <= 0. TOP, BOT:     26.8828630600000       
    27.5000000000000
 ERROR. CELL (1,115,97) THICKNESS <= 0. TOP, BOT:     52.2871473000000        
   52.5000000000000
 ERROR. CELL (1,117,99) THICKNESS <= 0. TOP, BOT:     49.9584476100000        
   50.5000000000000
 ERROR. CELL (1,118,87) THICKNESS <= 0. TOP, BOT:     77.7725463700000        
   77.8514328000000
 ERROR. CELL (1,118,112) THICKNESS <= 0. TOP, BOT:     19.2163930500000       
    19.9082508100000
 ERROR. CELL (1,119,88) THICKNESS <= 0. TOP, BOT:     73.3773327700000        
   75.1987304700000
 ERROR. CELL (1,120,71) THICKNESS <= 0. TOP, BOT:     108.449376970000        
   108.455497740000
 ERROR. CELL (1,120,88) THICKNESS <= 0. TOP, BOT:     71.2871473000000        
   71.5000000000000
 ERROR. CELL (1,120,89) THICKNESS <= 0. TOP, BOT:     79.7816170100000        
   80.2423934900000
 ERROR. CELL (1,120,102) THICKNESS <= 0. TOP, BOT:     41.8377703300000       
    41.8958702100000
 ERROR. CELL (1,120,110) THICKNESS <= 0. TOP, BOT:     18.3737924300000       
    18.4821491200000
 ERROR. CELL (1,121,82) THICKNESS <= 0. TOP, BOT:     108.045092740000        
   108.440002440000
 ERROR. CELL (1,121,92) THICKNESS <= 0. TOP, BOT:     73.0450927400000        
   73.2029495200000
 ERROR. CELL (1,121,102) THICKNESS <= 0. TOP, BOT:     24.9188851600000       
    25.0000000000000
 ERROR. CELL (1,121,103) THICKNESS <= 0. TOP, BOT:     21.0652239600000       
    23.0000000000000
 ERROR. CELL (1,121,104) THICKNESS <= 0. TOP, BOT:     21.1359782100000       
    21.5000000000000
 ERROR. CELL (1,121,105) THICKNESS <= 0. TOP, BOT:     22.9390163900000       
    23.0000000000000
 ERROR. CELL (1,121,106) THICKNESS <= 0. TOP, BOT:     23.9646779100000       
    24.0000000000000
 ERROR. CELL (1,122,83) THICKNESS <= 0. TOP, BOT:     81.9188851600000        
   86.5000000000000
 ERROR. CELL (1,122,84) THICKNESS <= 0. TOP, BOT:     83.9188851600000        
   85.5000000000000
 ERROR. CELL (1,122,101) THICKNESS <= 0. TOP, BOT:     29.9944697100000       
    30.2948093400000
 ERROR. CELL (1,122,108) THICKNESS <= 0. TOP, BOT:     20.8231694000000       
    20.8870792400000
 ERROR. CELL (1,122,109) THICKNESS <= 0. TOP, BOT:     19.9188851600000       
    20.4579296100000
 ERROR. CELL (1,123,80) THICKNESS <= 0. TOP, BOT:     107.034732150000        
   107.500000000000
 ERROR. CELL (1,124,68) THICKNESS <= 0. TOP, BOT:     148.817639100000        
   148.901306150000
 ERROR. CELL (1,124,80) THICKNESS <= 0. TOP, BOT:     93.6249176300000        
   95.4399032600000
 ERROR. CELL (1,124,95) THICKNESS <= 0. TOP, BOT:     63.3322400400000        
   64.0000000000000
 ERROR. CELL (1,125,92) THICKNESS <= 0. TOP, BOT:     83.1408085000000        
   83.2140808100000
 ERROR. CELL (1,126,66) THICKNESS <= 0. TOP, BOT:     144.201202170000        
   145.500000000000
 ERROR. CELL (1,126,69) THICKNESS <= 0. TOP, BOT:     136.878032780000        
   137.665405270000
 ERROR. CELL (1,126,70) THICKNESS <= 0. TOP, BOT:     121.563934020000        
   124.000000000000
 ERROR. CELL (1,126,88) THICKNESS <= 0. TOP, BOT:     105.317639100000        
   105.879501340000
 ERROR. CELL (1,127,67) THICKNESS <= 0. TOP, BOT:     122.762185790000        
   123.000000000000
 ERROR. CELL (1,127,68) THICKNESS <= 0. TOP, BOT:     121.579824890000        
   122.500000000000
 ERROR. CELL (1,127,92) THICKNESS <= 0. TOP, BOT:     78.4390163900000        
   78.6352767900000
 ERROR. CELL (1,128,89) THICKNESS <= 0. TOP, BOT:     93.9493769700000        
   93.9936828600000
 ERROR. CELL (1,128,92) THICKNESS <= 0. TOP, BOT:     71.9279558000000        
   73.0000000000000
 ERROR. CELL (1,129,85) THICKNESS <= 0. TOP, BOT:     100.801748230000        
   107.393402100000
 ERROR. CELL (1,129,91) THICKNESS <= 0. TOP, BOT:     75.4639779000000        
   75.5000000000000
 ERROR. CELL (1,130,90) THICKNESS <= 0. TOP, BOT:     82.0450927400000        
   82.4959030200000
 ERROR. CELL (1,131,84) THICKNESS <= 0. TOP, BOT:     94.5957157700000        
   95.6602783200000
 ERROR. CELL (1,131,89) THICKNESS <= 0. TOP, BOT:     82.6859012400000        
   83.0000000000000
 ERROR. CELL (1,131,121) THICKNESS <= 0. TOP, BOT:     19.4133548700000       
    19.4598007200000
 ERROR. CELL (1,133,63) THICKNESS <= 0. TOP, BOT:     163.706032460000        
   164.500000000000
 ERROR. CELL (1,133,64) THICKNESS <= 0. TOP, BOT:     157.888393360000        
   158.000000000000
 ERROR. CELL (1,133,65) THICKNESS <= 0. TOP, BOT:     155.717093050000        
   160.500000000000
 ERROR. CELL (1,133,77) THICKNESS <= 0. TOP, BOT:     115.973748540000        
   117.500000000000
 ERROR. CELL (1,133,78) THICKNESS <= 0. TOP, BOT:     113.402994290000        
   115.405502320000
 ERROR. CELL (1,133,98) THICKNESS <= 0. TOP, BOT:     76.5957157700000        
   76.9861984300000
 ERROR. CELL (1,133,116) THICKNESS <= 0. TOP, BOT:     28.9480870300000       
    30.5000000000000
 ERROR. CELL (1,133,118) THICKNESS <= 0. TOP, BOT:     28.5146009300000       
    29.1662292500000
 ERROR. CELL (1,134,113) THICKNESS <= 0. TOP, BOT:     43.3176391000000       
    43.8465004000000
 ERROR. CELL (1,135,115) THICKNESS <= 0. TOP, BOT:     26.1914315300000       
    26.7147407500000
 ERROR. CELL (1,136,83) THICKNESS <= 0. TOP, BOT:     103.447387020000        
   105.000000000000
 ERROR. CELL (1,136,108) THICKNESS <= 0. TOP, BOT:     55.7919775900000       
    56.1429290800000
 ERROR. CELL (1,137,82) THICKNESS <= 0. TOP, BOT:     121.132698320000        
   126.031303410000
 ERROR. CELL (1,137,107) THICKNESS <= 0. TOP, BOT:     56.2871473000000       
    56.5000000000000
 ERROR. CELL (1,137,110) THICKNESS <= 0. TOP, BOT:     35.2871473000000       
    35.5000000000000
 ERROR. CELL (1,138,105) THICKNESS <= 0. TOP, BOT:     66.5347321500000       
    69.0033798200000
 ERROR. CELL (1,138,106) THICKNESS <= 0. TOP, BOT:     46.0158908800000       
    48.0000000000000
 ERROR. CELL (1,138,109) THICKNESS <= 0. TOP, BOT:     36.1103167000000       
    36.5000000000000
 ERROR. CELL (1,139,105) THICKNESS <= 0. TOP, BOT:     59.3828630600000       
    61.4261703500000
 ERROR. CELL (1,139,106) THICKNESS <= 0. TOP, BOT:     48.8883933600000       
    53.5000000000000
 ERROR. CELL (1,140,105) THICKNESS <= 0. TOP, BOT:     47.8231694000000       
    48.5000000000000
 ERROR. CELL (1,140,106) THICKNESS <= 0. TOP, BOT:     43.0901854700000       
    43.5000000000000
 ERROR. CELL (1,141,78) THICKNESS <= 0. TOP, BOT:     130.211562760000        
   130.998596190000
 ERROR. CELL (1,141,79) THICKNESS <= 0. TOP, BOT:     122.236524270000        
   123.455703740000
 ERROR. CELL (1,141,103) THICKNESS <= 0. TOP, BOT:     55.5957157700000       
    55.6100692700000
 ERROR. CELL (1,141,105) THICKNESS <= 0. TOP, BOT:     45.0957157700000       
    45.8097190900000
 ERROR. CELL (1,141,106) THICKNESS <= 0. TOP, BOT:     43.3231694000000       
    43.6809387200000
 ERROR. CELL (1,142,101) THICKNESS <= 0. TOP, BOT:     60.6408085000000       
    61.4132003800000
 ERROR. CELL (1,142,103) THICKNESS <= 0. TOP, BOT:     51.5957157700000       
    51.9882583600000
 ERROR. CELL (1,142,105) THICKNESS <= 0. TOP, BOT:     41.8682621300000       
    42.7708282500000
 ERROR. CELL (1,143,102) THICKNESS <= 0. TOP, BOT:     54.0450927400000       
    54.3660697900000
 ERROR. CELL (1,144,98) THICKNESS <= 0. TOP, BOT:     68.9785788300000        
   70.9185562100000
 ERROR. CELL (1,144,100) THICKNESS <= 0. TOP, BOT:     57.1914315300000       
    57.9426612900000
 ERROR. CELL (1,145,96) THICKNESS <= 0. TOP, BOT:     65.2614857800000        
   65.5000000000000
 ERROR. CELL (1,145,150) THICKNESS <= 0. TOP, BOT:    -14.7530491900000       
   -14.7311201100000
 ERROR. CELL (1,146,95) THICKNESS <= 0. TOP, BOT:     77.3682621300000        
   77.9277496300000
 ERROR. CELL (1,147,94) THICKNESS <= 0. TOP, BOT:     82.1700103600000        
   83.9781036400000
 ERROR. CELL (1,147,135) THICKNESS <= 0. TOP, BOT:     32.0450927400000       
    32.2604103100000
 ERROR. CELL (1,148,93) THICKNESS <= 0. TOP, BOT:     83.4279558000000        
   84.5000000000000
 ERROR. CELL (1,148,97) THICKNESS <= 0. TOP, BOT:     62.7219233400000        
   62.8093986500000
 ERROR. CELL (1,148,98) THICKNESS <= 0. TOP, BOT:     52.4931797600000        
   54.5000000000000
 ERROR. CELL (1,148,108) THICKNESS <= 0. TOP, BOT:     48.0450927400000       
    48.1808891300000
 ERROR. CELL (1,148,123) THICKNESS <= 0. TOP, BOT:     47.4168952100000       
    48.3245506300000
 ERROR. CELL (1,148,126) THICKNESS <= 0. TOP, BOT:     41.3987539400000       
    41.4198799100000
 ERROR. CELL (1,148,148) THICKNESS <= 0. TOP, BOT:    -1.35649813000000       
   -1.10876501000000
 ERROR. CELL (1,149,92) THICKNESS <= 0. TOP, BOT:     87.1914315300000        
   87.2730178800000
 ERROR. CELL (1,149,95) THICKNESS <= 0. TOP, BOT:     65.3176391000000        
   65.9748611500000
 ERROR. CELL (1,149,97) THICKNESS <= 0. TOP, BOT:     52.6803709500000        
   53.5000000000000
 ERROR. CELL (1,149,103) THICKNESS <= 0. TOP, BOT:     55.0450927400000       
    55.1049499500000
 ERROR. CELL (1,149,107) THICKNESS <= 0. TOP, BOT:     52.8176391000000       
    53.1997604400000
 ERROR. CELL (1,149,123) THICKNESS <= 0. TOP, BOT:     45.0992561100000       
    46.5000000000000
 ERROR. CELL (1,149,149) THICKNESS <= 0. TOP, BOT:    -7.05212203000000       
   -6.81250000000000
 ERROR. CELL (1,150,92) THICKNESS <= 0. TOP, BOT:     81.0957157700000        
   81.1642227200000
 ERROR. CELL (1,150,142) THICKNESS <= 0. TOP, BOT:     24.3932236500000       
    24.6997795100000
 ERROR. CELL (1,150,145) THICKNESS <= 0. TOP, BOT:     13.2219233400000       
    13.4306802700000
 ERROR. CELL (1,151,90) THICKNESS <= 0. TOP, BOT:     88.4639779000000        
   88.5000000000000
 ERROR. CELL (1,152,87) THICKNESS <= 0. TOP, BOT:     93.7475848600000        
   97.5000000000000
 ERROR. CELL (1,152,88) THICKNESS <= 0. TOP, BOT:     94.8682621300000        
   95.4312210100000
 ERROR. CELL (1,152,91) THICKNESS <= 0. TOP, BOT:     78.1914315300000        
   78.3861465500000
 ERROR. CELL (1,152,93) THICKNESS <= 0. TOP, BOT:     59.9224255100000        
   61.5000000000000
 ERROR. CELL (1,152,122) THICKNESS <= 0. TOP, BOT:     67.2365242700000       
    68.4632568400000
 ERROR. CELL (1,153,116) THICKNESS <= 0. TOP, BOT:     71.3932236500000       
    71.6657333400000
 ERROR. CELL (1,154,85) THICKNESS <= 0. TOP, BOT:     96.7365242700000        
   97.0000000000000
 ERROR. CELL (1,154,86) THICKNESS <= 0. TOP, BOT:     90.6103167000000        
   91.0000000000000
 ERROR. CELL (1,155,83) THICKNESS <= 0. TOP, BOT:     102.963977900000        
   103.000000000000
 ERROR. CELL (1,155,117) THICKNESS <= 0. TOP, BOT:     94.3516712500000       
    95.9422378500000
 ERROR. CELL (1,157,78) THICKNESS <= 0. TOP, BOT:     101.206032460000        
   102.000000000000
 ERROR. CELL (1,157,80) THICKNESS <= 0. TOP, BOT:     93.7115627600000        
   94.0000000000000
 ERROR. CELL (1,157,81) THICKNESS <= 0. TOP, BOT:     89.2871473000000        
   89.5000000000000
 ERROR. CELL (1,157,83) THICKNESS <= 0. TOP, BOT:     77.0596936700000        
   77.5000000000000
 ERROR. CELL (1,158,75) THICKNESS <= 0. TOP, BOT:     126.523671570000        
   128.639892580000
 ERROR. CELL (1,159,72) THICKNESS <= 0. TOP, BOT:     138.624917630000        
   140.000000000000
 ERROR. CELL (1,160,72) THICKNESS <= 0. TOP, BOT:     124.610316700000        
   125.000000000000
 ERROR. CELL (1,161,80) THICKNESS <= 0. TOP, BOT:     84.9133548700000        
   85.0000000000000
 ERROR. CELL (1,162,66) THICKNESS <= 0. TOP, BOT:     154.478578830000        
   155.500000000000
 ERROR. CELL (1,162,69) THICKNESS <= 0. TOP, BOT:     135.418885160000        
   135.500000000000
 ERROR. CELL (1,162,71) THICKNESS <= 0. TOP, BOT:     126.140808500000        
   126.355400090000
 ERROR. CELL (1,162,73) THICKNESS <= 0. TOP, BOT:     108.362141900000        
   111.808403020000
 ERROR. CELL (1,162,74) THICKNESS <= 0. TOP, BOT:     101.837770330000        
   102.000000000000
 ERROR. CELL (1,163,61) THICKNESS <= 0. TOP, BOT:     178.036132160000        
   179.197906490000
 ERROR. CELL (1,163,65) THICKNESS <= 0. TOP, BOT:     156.155409430000        
   157.000000000000
 ERROR. CELL (1,163,70) THICKNESS <= 0. TOP, BOT:     127.696961830000        
   128.467605590000
 ERROR. CELL (1,163,72) THICKNESS <= 0. TOP, BOT:     107.387693350000        
   107.500000000000
 ERROR. CELL (1,163,77) THICKNESS <= 0. TOP, BOT:     91.3231694000000        
   91.4188537600000
 ERROR. CELL (1,166,77) THICKNESS <= 0. TOP, BOT:     119.191431530000        
   119.701202390000
 ERROR. CELL (1,168,80) THICKNESS <= 0. TOP, BOT:     126.488349470000        
   126.815803530000
 ERROR OCCURRED WHILE READING FILE:
 
   C:\Users\emmal\Documents\GitHub\TM_Ludovic_Schorpp\codes_tests\Modeles3D\te
   st_3D\working\test_3D.dis
 Stopping due to error(s)
