                                   MODFLOW 6
                U.S. GEOLOGICAL SURVEY MODULAR HYDROLOGIC MODEL
                          GROUNDWATER FLOW MODEL (GWF)
                            VERSION 6.0.4 03/13/2019

   MODFLOW 6 compiled Mar 21 2019 15:37:31 with IFORT compiler (ver. 19.0.0)

This software has been approved for release by the U.S. Geological 
Survey (USGS). Although the software has been subjected to rigorous 
review, the USGS reserves the right to update the software as needed 
pursuant to further analysis and review. No warranty, expressed or 
implied, is made by the USGS or the U.S. Government as to the 
functionality of the software and related material nor shall the 
fact of release constitute any such warranty. Furthermore, the 
software is released on condition that neither the USGS nor the U.S. 
Government shall be held liable for any damages resulting from its 
authorized or unauthorized use. Also refer to the USGS Water 
Resources Software User Rights Notice for complete use, copyright, 
and distribution information.


MODFLOW was compiled using uniform precision.
Precision of REAL variables: 15


 OPENED test_3D.dis
 FILE TYPE:DIS6                   UNIT 1005   STATUS:OLD                 
 FORMAT:FORMATTED              ACCESS:SEQUENTIAL          
 ACTION:READ                


 OPENED test_3D.ic
 FILE TYPE:IC6                    UNIT 1006   STATUS:OLD                 
 FORMAT:FORMATTED              ACCESS:SEQUENTIAL          
 ACTION:READ                


 OPENED test_3D.oc
 FILE TYPE:OC6                    UNIT 1007   STATUS:OLD                 
 FORMAT:FORMATTED              ACCESS:SEQUENTIAL          
 ACTION:READ                


 OPENED test_3D.npf
 FILE TYPE:NPF6                   UNIT 1008   STATUS:OLD                 
 FORMAT:FORMATTED              ACCESS:SEQUENTIAL          
 ACTION:READ                


 OPENED test_3D.wel
 FILE TYPE:WEL6                   UNIT 1009   STATUS:OLD                 
 FORMAT:FORMATTED              ACCESS:SEQUENTIAL          
 ACTION:READ                


 OPENED test_3D.rch
 FILE TYPE:RCH6                   UNIT 1010   STATUS:OLD                 
 FORMAT:FORMATTED              ACCESS:SEQUENTIAL          
 ACTION:READ                


 OPENED sea.chd
 FILE TYPE:CHD6                   UNIT 1011   STATUS:OLD                 
 FORMAT:FORMATTED              ACCESS:SEQUENTIAL          
 ACTION:READ                


 OPENED eta.chd
 FILE TYPE:CHD6                   UNIT 1012   STATUS:OLD                 
 FORMAT:FORMATTED              ACCESS:SEQUENTIAL          
 ACTION:READ                


 OPENED plio.chd
 FILE TYPE:CHD6                   UNIT 1013   STATUS:OLD                 
 FORMAT:FORMATTED              ACCESS:SEQUENTIAL          
 ACTION:READ                


 OPENED agly.riv
 FILE TYPE:RIV6                   UNIT 1014   STATUS:OLD                 
 FORMAT:FORMATTED              ACCESS:SEQUENTIAL          
 ACTION:READ                


 OPENED Tet.riv
 FILE TYPE:RIV6                   UNIT 1015   STATUS:OLD                 
 FORMAT:FORMATTED              ACCESS:SEQUENTIAL          
 ACTION:READ                


 OPENED Rea.riv
 FILE TYPE:RIV6                   UNIT 1016   STATUS:OLD                 
 FORMAT:FORMATTED              ACCESS:SEQUENTIAL          
 ACTION:READ                


 OPENED Cant.riv
 FILE TYPE:RIV6                   UNIT 1017   STATUS:OLD                 
 FORMAT:FORMATTED              ACCESS:SEQUENTIAL          
 ACTION:READ                


 OPENED Tech.riv
 FILE TYPE:RIV6                   UNIT 1018   STATUS:OLD                 
 FORMAT:FORMATTED              ACCESS:SEQUENTIAL          
 ACTION:READ                


 OPENED Bol.riv
 FILE TYPE:RIV6                   UNIT 1019   STATUS:OLD                 
 FORMAT:FORMATTED              ACCESS:SEQUENTIAL          
 ACTION:READ                


 DIS -- STRUCTURED GRID DISCRETIZATION PACKAGE, VERSION 2 : 3/27/2014 - INPUT READ FROM UNIT 1005


 PROCESSING DISCRETIZATION OPTIONS
    XORIGIN SPECIFIED AS     664550.000000000    
    YORIGIN SPECIFIED AS     6152850.00000000    
 END OF DISCRETIZATION OPTIONS
 MODEL LENGTH UNIT IS UNDEFINED
 PROCESSING DISCRETIZATION DIMENSIONS
    NLAY =       4
    NROW =     182
    NCOL =     234
 END OF DISCRETIZATION DIMENSIONS
 PROCESSING GRIDDATA
 END PROCESSING GRIDDATA

 THE SPECIFIED IDOMAIN RESULTS IN A REDUCED NUMBER OF CELLS.
 NUMBER OF USER NODES:  170352
 NUMBER OF NODES IN SOLUTION:   99160



 NPF -- NODE PROPERTY FLOW PACKAGE, VERSION 1, 3/30/2015 INPUT READ FROM UNIT 1008


 PROCESSING NPF OPTIONS
    CELL-BY-CELL FLOW INFORMATION WILL BE SAVED TO BINARY FILE WHENEVER ICBCFL IS NOT ZERO.
 END OF NPF OPTIONS

 WEL   -- WEL PACKAGE, VERSION 8, 2/22/2014 INPUT READ FROM UNIT 1009

 PROCESSING WEL OPTIONS
    FLOWS WILL BE SAVED TO BUDGET FILE SPECIFIED IN OUTPUT CONTROL
 END OF WEL OPTIONS

 PROCESSING WEL DIMENSIONS
    MAXBOUND =     443
 END OF WEL DIMENSIONS

 RIV   -- RIV PACKAGE, VERSION 8, 2/22/2014 INPUT READ FROM UNIT 1014

 PROCESSING RIV OPTIONS
    FLOWS WILL BE SAVED TO BUDGET FILE SPECIFIED IN OUTPUT CONTROL
 END OF RIV OPTIONS

 PROCESSING RIV DIMENSIONS
    MAXBOUND =      84
 END OF RIV DIMENSIONS

 RIV   -- RIV PACKAGE, VERSION 8, 2/22/2014 INPUT READ FROM UNIT 1015

 PROCESSING RIV OPTIONS
    FLOWS WILL BE SAVED TO BUDGET FILE SPECIFIED IN OUTPUT CONTROL
 END OF RIV OPTIONS

 PROCESSING RIV DIMENSIONS
    MAXBOUND =     170
 END OF RIV DIMENSIONS

 RIV   -- RIV PACKAGE, VERSION 8, 2/22/2014 INPUT READ FROM UNIT 1016

 PROCESSING RIV OPTIONS
    FLOWS WILL BE SAVED TO BUDGET FILE SPECIFIED IN OUTPUT CONTROL
 END OF RIV OPTIONS

 PROCESSING RIV DIMENSIONS
    MAXBOUND =      96
 END OF RIV DIMENSIONS

 RIV   -- RIV PACKAGE, VERSION 8, 2/22/2014 INPUT READ FROM UNIT 1017

 PROCESSING RIV OPTIONS
    FLOWS WILL BE SAVED TO BUDGET FILE SPECIFIED IN OUTPUT CONTROL
 END OF RIV OPTIONS

 PROCESSING RIV DIMENSIONS
    MAXBOUND =      54
 END OF RIV DIMENSIONS

 RIV   -- RIV PACKAGE, VERSION 8, 2/22/2014 INPUT READ FROM UNIT 1018

 PROCESSING RIV OPTIONS
    FLOWS WILL BE SAVED TO BUDGET FILE SPECIFIED IN OUTPUT CONTROL
 END OF RIV OPTIONS

 PROCESSING RIV DIMENSIONS
    MAXBOUND =     127
 END OF RIV DIMENSIONS

 RIV   -- RIV PACKAGE, VERSION 8, 2/22/2014 INPUT READ FROM UNIT 1019

 PROCESSING RIV OPTIONS
    FLOWS WILL BE SAVED TO BUDGET FILE SPECIFIED IN OUTPUT CONTROL
 END OF RIV OPTIONS

 PROCESSING RIV DIMENSIONS
    MAXBOUND =      48
 END OF RIV DIMENSIONS

 RCH   -- RCH PACKAGE, VERSION 8, 2/22/2014 INPUT READ FROM UNIT 1010

 PROCESSING RCH OPTIONS
    FLOWS WILL BE SAVED TO BUDGET FILE SPECIFIED IN OUTPUT CONTROL
 END OF RCH OPTIONS

 PROCESSING RCH DIMENSIONS
    MAXBOUND =   26719
 END OF RCH DIMENSIONS

 CHD   -- CHD PACKAGE, VERSION 8, 2/22/2014 INPUT READ FROM UNIT 1011

 PROCESSING CHD OPTIONS
    FLOWS WILL BE SAVED TO BUDGET FILE SPECIFIED IN OUTPUT CONTROL
 END OF CHD OPTIONS

 PROCESSING CHD DIMENSIONS
    MAXBOUND =   16431
 END OF CHD DIMENSIONS

 CHD   -- CHD PACKAGE, VERSION 8, 2/22/2014 INPUT READ FROM UNIT 1012

 PROCESSING CHD OPTIONS
    FLOWS WILL BE SAVED TO BUDGET FILE SPECIFIED IN OUTPUT CONTROL
 END OF CHD OPTIONS

 PROCESSING CHD DIMENSIONS
    MAXBOUND =     643
 END OF CHD DIMENSIONS

 CHD   -- CHD PACKAGE, VERSION 8, 2/22/2014 INPUT READ FROM UNIT 1013

 PROCESSING CHD OPTIONS
    FLOWS WILL BE SAVED TO BUDGET FILE SPECIFIED IN OUTPUT CONTROL
 END OF CHD OPTIONS

 PROCESSING CHD DIMENSIONS
    MAXBOUND =      17
 END OF CHD DIMENSIONS

 IC -- INITIAL CONDITIONS PACKAGE, VERSION 8, 3/28/2015 INPUT READ FROM UNIT 1006
 PROCESSING GRIDDATA
 END PROCESSING GRIDDATA
 PROCESSING GRIDDATA

                ICELLTYPE = 0

                        K =  0.5000000E-03 FOR LAYER 1

                        K =  0.2500000E-08 FOR LAYER 2

                        K =  0.2500000E-04 FOR LAYER 3

                        K =  0.2000000E-04 FOR LAYER 4

                      K33 =  0.1000000E-03 FOR LAYER 1

                      K33 =  0.5000000E-09 FOR LAYER 2

                      K33 =  0.5000000E-05 FOR LAYER 3

                      K33 =  0.4000000E-05 FOR LAYER 4
 K22 not provided.  Assuming K22 = K.
 END PROCESSING GRIDDATA
    BINARY GRID INFORMATION WILL BE WRITTEN TO:
      UNIT NUMBER: 1021
      FILE NAME: C:\Users\emmal\Documents\GitHub\TM_Ludovic_Schorpp\codes_tests\Modeles3D\test_3D\working\test_3D.dis.grb

 OPENED C:\Users\emmal\Documents\GitHub\TM_Ludovic_Schorpp\codes_tests\Modeles3D\test_3D\working\test_3D.dis.grb
 FILE TYPE:DATA(BINARY)   UNIT 1021   STATUS:REPLACE             
 FORMAT:UNFORMATTED            ACCESS:STREAM              
 ACTION:READWRITE           

      THE LAST TIME STEP WILL BE PRINTED
      THE LAST TIME STEP WILL BE PRINTED
 PROCESSING OC OPTIONS
    BUDGET INFORMATION WILL BE WRITTEN TO:
      UNIT NUMBER: 1022
      FILE NAME: test_3D.cbc

 OPENED test_3D.cbc
 FILE TYPE:DATA(BINARY)   UNIT 1022   STATUS:REPLACE             
 FORMAT:UNFORMATTED            ACCESS:STREAM              
 ACTION:READWRITE           

    HEAD INFORMATION WILL BE WRITTEN TO:
      UNIT NUMBER: 1023
      FILE NAME: test_3D.hds

 OPENED test_3D.hds
 FILE TYPE:DATA(BINARY)   UNIT 1023   STATUS:REPLACE             
 FORMAT:UNFORMATTED            ACCESS:STREAM              
 ACTION:READWRITE           

 END OF OC OPTIONS

 BEGIN READING OUTPUT CONTROL FOR STRESS PERIOD 1
      THE LAST TIME STEP WILL BE SAVED
      THE LAST TIME STEP WILL BE SAVED
      ALL TIME STEPS WILL BE PRINTED

 END READING OUTPUT CONTROL FOR STRESS PERIOD 1
 UBDSV1 SAVING     FLOW-JA-FACE ON UNIT   1022 AT TIME STEP      1, STRESS PERIOD      1
 UBDSV06 SAVING              WEL IN MODEL TEST_3D          PACKAGE TEST_3D         CONNECTED TO MODEL TEST_3D          PACKAGE WEL              ON UNIT   1022 AT TIME STEP      1, STRESS PERIOD      1
 UBDSV06 SAVING              RIV IN MODEL TEST_3D          PACKAGE TEST_3D         CONNECTED TO MODEL TEST_3D          PACKAGE AGLY             ON UNIT   1022 AT TIME STEP      1, STRESS PERIOD      1
 UBDSV06 SAVING              RIV IN MODEL TEST_3D          PACKAGE TEST_3D         CONNECTED TO MODEL TEST_3D          PACKAGE TET              ON UNIT   1022 AT TIME STEP      1, STRESS PERIOD      1
 UBDSV06 SAVING              RIV IN MODEL TEST_3D          PACKAGE TEST_3D         CONNECTED TO MODEL TEST_3D          PACKAGE REA              ON UNIT   1022 AT TIME STEP      1, STRESS PERIOD      1
 UBDSV06 SAVING              RIV IN MODEL TEST_3D          PACKAGE TEST_3D         CONNECTED TO MODEL TEST_3D          PACKAGE CANT             ON UNIT   1022 AT TIME STEP      1, STRESS PERIOD      1
 UBDSV06 SAVING              RIV IN MODEL TEST_3D          PACKAGE TEST_3D         CONNECTED TO MODEL TEST_3D          PACKAGE TECH             ON UNIT   1022 AT TIME STEP      1, STRESS PERIOD      1
 UBDSV06 SAVING              RIV IN MODEL TEST_3D          PACKAGE TEST_3D         CONNECTED TO MODEL TEST_3D          PACKAGE BOL              ON UNIT   1022 AT TIME STEP      1, STRESS PERIOD      1
 UBDSV06 SAVING              RCH IN MODEL TEST_3D          PACKAGE TEST_3D         CONNECTED TO MODEL TEST_3D          PACKAGE RCH              ON UNIT   1022 AT TIME STEP      1, STRESS PERIOD      1
 UBDSV06 SAVING              CHD IN MODEL TEST_3D          PACKAGE TEST_3D         CONNECTED TO MODEL TEST_3D          PACKAGE SEA              ON UNIT   1022 AT TIME STEP      1, STRESS PERIOD      1
 UBDSV06 SAVING              CHD IN MODEL TEST_3D          PACKAGE TEST_3D         CONNECTED TO MODEL TEST_3D          PACKAGE ETA              ON UNIT   1022 AT TIME STEP      1, STRESS PERIOD      1
 UBDSV06 SAVING              CHD IN MODEL TEST_3D          PACKAGE TEST_3D         CONNECTED TO MODEL TEST_3D          PACKAGE PLIO             ON UNIT   1022 AT TIME STEP      1, STRESS PERIOD      1

 HEAD WILL BE SAVED ON UNIT 1023 AT END OF TIME STEP    1, STRESS PERIOD    1


  VOLUME BUDGET FOR ENTIRE MODEL AT END OF TIME STEP    1, STRESS PERIOD   1
  ---------------------------------------------------------------------------------------------------

     CUMULATIVE VOLUME      L**3       RATES FOR THIS TIME STEP      L**3/T          PACKAGE NAME    
     ------------------                 ------------------------                     ----------------

           IN:                                      IN:
           ---                                      ---
                 WEL =           0.0000                   WEL =           0.0000     WEL             
                 RIV =           0.0000                   RIV =           0.0000     AGLY            
                 RIV =       7.7486E-02                   RIV =       7.7486E-02     TET             
                 RIV =           0.1023                   RIV =           0.1023     REA             
                 RIV =           0.1549                   RIV =           0.1549     CANT            
                 RIV =       3.0531E-02                   RIV =       3.0531E-02     TECH            
                 RIV =           0.4063                   RIV =           0.4063     BOL             
                 RCH =           3.1429                   RCH =           3.1429     RCH             
                 CHD =       2.5442E-02                   CHD =       2.5442E-02     SEA             
                 CHD =       1.2261E-02                   CHD =       1.2261E-02     ETA             
                 CHD =           0.3125                   CHD =           0.3125     PLIO            

            TOTAL IN =           4.2647              TOTAL IN =           4.2647

          OUT:                                     OUT:
          ----                                     ----
                 WEL =           1.5009                   WEL =           1.5009     WEL             
                 RIV =           0.2374                   RIV =           0.2374     AGLY            
                 RIV =           0.7363                   RIV =           0.7363     TET             
                 RIV =           0.2215                   RIV =           0.2215     REA             
                 RIV =           0.1072                   RIV =           0.1072     CANT            
                 RIV =           0.4201                   RIV =           0.4201     TECH            
                 RIV =       6.2902E-03                   RIV =       6.2902E-03     BOL             
                 RCH =           0.0000                   RCH =           0.0000     RCH             
                 CHD =           0.6335                   CHD =           0.6335     SEA             
                 CHD =           0.4008                   CHD =           0.4008     ETA             
                 CHD =           0.0000                   CHD =           0.0000     PLIO            

           TOTAL OUT =           4.2640             TOTAL OUT =           4.2640

            IN - OUT =       6.6205E-04              IN - OUT =       6.6205E-04

 PERCENT DISCREPANCY =           0.02     PERCENT DISCREPANCY =           0.02




         TIME SUMMARY AT END OF TIME STEP    1 IN STRESS PERIOD    1
                    SECONDS     MINUTES      HOURS       DAYS        YEARS
                    -----------------------------------------------------------
   TIME STEP LENGTH  1.0000     1.66667E-02 2.77778E-04 1.15741E-05 3.16881E-08
 STRESS PERIOD TIME  1.0000     1.66667E-02 2.77778E-04 1.15741E-05 3.16881E-08
         TOTAL TIME  1.0000     1.66667E-02 2.77778E-04 1.15741E-05 3.16881E-08
