                                   MODFLOW 6
                U.S. GEOLOGICAL SURVEY MODULAR HYDROLOGIC MODEL
                            VERSION 6.0.4 03/13/2019

   MODFLOW 6 compiled Mar 21 2019 15:37:31 with IFORT compiler (ver. 19.0.0)

This software has been approved for release by the U.S. Geological 
Survey (USGS). Although the software has been subjected to rigorous 
review, the USGS reserves the right to update the software as needed 
pursuant to further analysis and review. No warranty, expressed or 
implied, is made by the USGS or the U.S. Government as to the 
functionality of the software and related material nor shall the 
fact of release constitute any such warranty. Furthermore, the 
software is released on condition that neither the USGS nor the U.S. 
Government shall be held liable for any damages resulting from its 
authorized or unauthorized use. Also refer to the USGS Water 
Resources Software User Rights Notice for complete use, copyright, 
and distribution information.


System command used to initiate simulation:
../../exe/mf6

MODFLOW was compiled using uniform precision.
Real Variables
  PRECISION: 15
  KIND: 8
  TINY (smallest non-zero value):    2.225074-308
  HUGE (largest value):    1.797693+308
Integer Variables
  KIND: 4
  HUGE (largest value): 2147483647
  BIT_SIZE: 32
 

 OPENED mfsim.nam
 FILE TYPE:NAM   UNIT 1001   STATUS:OLD                 
 FORMAT:FORMATTED              ACCESS:SEQUENTIAL          
 ACTION:READ                


 READING SIMULATION OPTIONS
 END OF SIMULATION OPTIONS

 READING SIMULATION TIMING

 OPENED first2D_mf6.tdis
 FILE TYPE:TDIS   UNIT 1002   STATUS:OLD                 
 FORMAT:FORMATTED              ACCESS:SEQUENTIAL          
 ACTION:READ                


 TDIS -- TEMPORAL DISCRETIZATION PACKAGE,
 VERSION 1 : 11/13/2014 - INPUT READ FROM UNIT 1002
 PROCESSING TDIS OPTIONS
    SIMULATION TIME UNIT IS SECONDS
 END OF TDIS OPTIONS
 PROCESSING TDIS DIMENSIONS
    1 STRESS PERIOD(S) IN SIMULATION
 END OF TDIS DIMENSIONS
 PROCESSING TDIS PERIODDATA


 STRESS PERIOD     LENGTH       TIME STEPS     MULTIPLIER FOR DELT
 ----------------------------------------------------------------------------
        1         1.000000          1                    1.000
 END OF TDIS PERIODDATA
 END OF SIMULATION TIMING

 READING SIMULATION MODELS
    GWF6 model FIRST_2D will be created as model 1
 END OF SIMULATION MODELS

 READING SIMULATION EXCHANGES
 END OF SIMULATION EXCHANGES

 READING SOLUTIONGROUP

 Creating solution: SLN_1           

 OPENED first2D_mf6.ims
 FILE TYPE:IMS   UNIT 1022   STATUS:OLD                 
 FORMAT:FORMATTED              ACCESS:SEQUENTIAL          
 ACTION:READ                

 END OF SIMULATION SOLUTIONGROUP

 IMS -- ITERATIVE MODEL SOLUTION PACKAGE, VERSION 6, 4/28/2017
         INPUT READ FROM UNIT 1022

 PROCESSING IMS OPTIONS
 MODERATE OPTION:
 DEFAULT SOLVER INPUT VALUES REFLECT MODERETELY NONLINEAR MODEL
 END OF IMS OPTIONS
 **UNDER-RELAXATION WILL BE USED***
 
 ***IMS LINEAR SOLVER WILL BE USED***

 IMSLINEAR -- UNSTRUCTURED LINEAR SOLUTION PACKAGE, VERSION 8, 04/28/2017
 
 OUTER ITERATION CONVERGENCE CRITERION     (HCLOSE) =    0.100000E-01
 OUTER ITERATION BOUNDARY FLOW RESIDUAL (RCLOSEBND) =    0.100000E+00
 MAXIMUM NUMBER OF OUTER ITERATIONS        (MXITER) =        50
 SOLVER PRINTOUT INDEX                     (IPRIMS) =         1
 NONLINEAR ITERATION METHOD            (NONLINMETH) =         3
 LINEAR SOLUTION METHOD                   (LINMETH) =         1
 UNDER-RELAXATION WEIGHT REDUCTION FACTOR   (THETA) =    0.900000E+00
 UNDER-RELAXATION WEIGHT INCREASE INCREMENT (KAPPA) =    0.100000E-03
 UNDER-RELAXATION PREVIOUS HISTORY FACTOR   (GAMMA) =    0.000000E+00
 UNDER-RELAXATIONMOMENTUM TERM          (AMOMENTUM) =    0.000000E+00
    MAXIMUM NUMBER OF BACKTRACKS         (NUMTRACK) =         0

       SOLUTION BY THE BICONJUGATE-GRADIENT STABILIZED METHOD
 ------------------------------------------------------------------
 MAXIMUM OF     50 CALLS OF SOLUTION ROUTINE
 MAXIMUM OF    100 INTERNAL ITERATIONS PER CALL TO SOLUTION ROUTINE
 LINEAR ACCELERATION METHOD            = BCGS      
 MATRIX PRECONDITIONING TYPE           = MOD. INCOMPLETE LU  
 MATRIX SCALING APPROACH               = NO SCALING          
 MATRIX REORDERING APPROACH            = ORIGINAL ORDERING        
 NUMBER OF ORTHOGONALIZATIONS          =        0
 HEAD CHANGE CRITERION FOR CLOSURE     =    0.10000E-01
 RESIDUAL CHANGE CRITERION FOR CLOSURE =    0.10000E+00
 RESIDUAL CONVERGENCE OPTION           =        0
 RESIDUAL CONVERGENCE NORM             = INFINITY NORM   
 RELAXATION FACTOR                     =    0.97000E+00



1
                            STRESS PERIOD NO.    1, LENGTH =   1.000000    
                            -----------------------------------------------

                              NUMBER OF TIME STEPS =     1

                               MULTIPLIER FOR DELT =     1.000

                            INITIAL TIME STEP SIZE =   1.000000    


 OUTER ITERATION SUMMARY
 ---------------------------------------------------------------------------------------
                       OUTER     INNER         MAXIMUM                    MAXIMUM CHANGE
                   ITERATION ITERATION          CHANGE                    MODEL-(CELLID)
 ---------------------------------------------------------------------------------------
 Linear Solver             1        35     796.634                      1_GWF-(1,101,82)
 Under-relaxation          1               796.634                      1_GWF-(1,101,82)
 Linear Solver             2         5    -746.611                      1_GWF-(1,107,84)
 Under-relaxation          2              -671.950                      1_GWF-(1,107,84)
 Linear Solver             3         6    -74.6611                      1_GWF-(1,107,84)
 Under-relaxation          3              -67.2025                      1_GWF-(1,107,84)
 Linear Solver             4         6    -81.4247                     1_GWF-(1,131,105)
 Under-relaxation          4              -73.2985                     1_GWF-(1,131,105)
 Linear Solver             5         7    -86.4142                      1_GWF-(1,132,60)
 Under-relaxation          5              -77.7987                      1_GWF-(1,132,60)
 Linear Solver             6         9    -54.4405                       1_GWF-(1,71,46)
 Under-relaxation          6              -49.0183                       1_GWF-(1,71,46)
 Linear Solver             7        11    -32.8826                      1_GWF-(1,141,70)
 Under-relaxation          7              -29.6108                      1_GWF-(1,141,70)
 Linear Solver             8        14    -27.8724                      1_GWF-(1,116,67)
 Under-relaxation          8              -25.1019                      1_GWF-(1,116,67)
 Linear Solver             9        12    -13.8612                     1_GWF-(1,124,114)
 Under-relaxation          9              -12.4848                     1_GWF-(1,124,114)
 Linear Solver            10        13    -7.67607                     1_GWF-(1,122,107)
 Under-relaxation         10              -6.91461                     1_GWF-(1,122,107)
 Linear Solver            11        11    -5.63810                     1_GWF-(1,120,111)
 Under-relaxation         11              -5.07936                     1_GWF-(1,120,111)
 Linear Solver            12        11   -0.563973                     1_GWF-(1,120,111)
 Under-relaxation         12             -0.508139                     1_GWF-(1,120,111)
 Linear Solver            13         4   -5.045509E-02                 1_GWF-(1,120,111)
 Under-relaxation         13             -4.546508E-02                 1_GWF-(1,120,111)
 Linear Solver            14         1   -6.921538E-03                 1_GWF-(1,120,111)

 14 CALLS TO NUMERICAL SOLUTION IN TIME STEP 1 STRESS PERIOD 1
 145 TOTAL ITERATIONS

 INFORMATION ON VARIABLES STORED IN THE MEMORY MANAGER
 
 Number of allocated integer variables:   476537
 Number of allocated real variables:    584458
 Allocated memory in megabytes:     6.58181    
 

 Run end date and time (yyyy/mm/dd hh:mm:ss): 2020/05/16  9:24:24
 Elapsed run time:  0.429 Seconds

 Normal termination of simulation.
