Get the name of the MODPATH simulation file.
Read the first two records of the simulation file to get mpnamFile and mplistFile ...
Allocate rectangular unstructured grid component.
Allocate time discretization data component ...
Allocate disMf6Grid.
Read DIS binary grid file.
Read time discretization data component ...
 
 ----------------------------------------------------------
 Cell connection data:
 ----------------------------------------------------------
 Format has two lines for each cell, listed by cell number.
 Line 1: Cell connections
 Line 1: Face assignment codes
 ----------------------------------------------------------


 


 


 


 


 


 


 


 


 


 


 


 


 


 


 


 


 


 


 


 


 


 


 


 


 


 


 


 


 


 


 


 


 


 


 


 


 


 


 


 


 


 


 


 


 


 


 


 


 


 


 


 


 


 


 


 


 


 


 


 


 


 


 


 


 


 


 


 


 


 


 


 


 


 


 


 


 


 


 


 


 


 


 


 


 


 


 


 


 


 


 


 


 


 


 


 


 


 


 


 


 


 


 


 


 


 


 


 


 


 


 


 


 


 


 


 


 


 


 


 


 


 


 


 


 


 


 


 


 


 


 


 


 


 


 


 


 


 


 


 


 


 


 


 


 


 


 


 


 


 


 


 


 


 


 


 


 


 


 


 


 


 


 


 


 


 


 


 


 


 


 


 


 


 


 


 


 


 


 


 


 


 


 


 


 


 


 


 


 


 


 


 


 


 


 


 


 


 


 


 


 


 


 


 


 


 


 


 


 


 


 


 


 


 


 


 


 


 


 


 


 


 


 


 


 


 


 


 


 


 


 


 


 


 


 


 


 


 


 


 


 


 


 


 


 


 


 


 


 


 


 


 


 


 


 


 


 


 


 


 


 


 


 


 


 


 


 


 


 


 


 


 


 


 


 


 


 


 


 


 


 


 


 


 


 


 


 


 


 


 


 


 


 


 


 


 


 


 


 


 


 


 


 


 


 


 


 


 


 


 


 


 


 


 


 


 


 


 


 


 


 


 


 


 


 


 


 


 


 


 


 


 


 


 


 


 


 


 


 


 


 


 


 


 


 


 


 


 


 


 


 


 


 


 


 


 


 


 


 


 


 


 


 


 


 


 


 


 


 


 


 


 


 


 


 


 


 


 


 


 


 


 


 


 


 


 


 


 


 


 


 


 


 


 


 


 


 


 


 


 


 


 


 


 


 


 


 


 


 


 


 


 


 


 


 


 


 


 


 


 


 


 


 


 


 


 


 


 


 


 


 


 


 


 


 


 


 


 


 


 


 


 


 


 


 


 


 


 


 


 


 


 


 


 


 


 


 


 


 


 


 


 


 


 


 


 


 


 


 


 


 


 


 


 


 


 


 


 


 


 


 


 


 


 


 


 


 


 


 


 


 


 


 


 


 


 


 


 


 


 


 


 


 


 


 


 


 


 


 


 


 


 


 


 


 


 


 


 


 


 


 


 


 


 


 


 


 


 


 


 


 


 


 


 


 


 


 


 


 


 


 


 


 


 


 


 


 


 


 


 


 


 


 


 


 


 


 


 


 


 


 


 


 


 


 


 


 


 


 


 


 


 


 


 


 


 


 


 


 


 


 


 


 


 
      585     586     735
        0   20101   30101
 
      586     585     587     736
        0   10101   20101   30101
 
      587     586     588     737
        0   10101   20101   30101
 
      588     587     589     738
        0   10101   20101   30101
 
      589     588     590     739
        0   10101   20101   30101
 
      590     589     591     740
        0   10101   20101   30101
 
      591     590     741
        0   10101   30101
 


 


 


 


 


 


 


 


 


 


 


 


 


 


 


 


 


 


 


 


 


 


 


 


 


 


 


 


 


 


 


 


 


 


 


 


 


 


 


 


 


 


 


 


 


 


 


 


 


 


 


 


 


 


 


 


 


 


 


 


 


 


 


 


 


 


 


 


 


 


 


 


 


 


 


 


 


 


 


 


 


 


 


 


 


 


 


 


 


 


 


 


 


 


 


 


 


 


 


 


 


 


 


 


 


 


 


 


 


 


 


 


 


 


 


 


 


 


 


 


 


 


 


 


 


 


 


 


 


 


 


 


 


 


 


 


 


 


 


 


 


 


 
      734     735
        0   20101
 
      735     585     734     736     885
        0   40101   10101   20101   30101
 
      736     586     735     737     886
        0   40101   10101   20101   30101
 
      737     587     736     738     887
        0   40101   10101   20101   30101
 
      738     588     737     739     888
        0   40101   10101   20101   30101
 
      739     589     738     740     889
        0   40101   10101   20101   30101
 
      740     590     739     741     890
        0   40101   10101   20101   30101
 
      741     591     740     742     891
        0   40101   10101   20101   30101
 
      742     741     743     892
        0   10101   20101   30101
 
      743     742     744     893
        0   10101   20101   30101
 
      744     743     894
        0   10101   30101
 


 


 


 


 


 


 


 


 


 


 


 


 


 


 


 


 


 


 


 


 


 


 


 


 


 


 


 


 


 


 


 


 


 


 


 


 


 


 


 


 


 


 


 


 


 


 


 


 


 


 


 


 


 


 


 


 


 


 


 


 


 


 


 


 


 


 


 


 


 


 


 


 


 


 


 


 


 


 


 


 


 


 


 


 


 


 


 


 


 


 


 


 


 


 


 


 


 


 


 


 


 


 


 


 


 


 


 


 


 


 


 


 


 


 


 


 


 


 


 


 


 


 


 


 


 


 


 


 


 


 


 


 


 


 


 


 


 


 


 


 
      885     735     886    1035
        0   40101   20101   30101
 
      886     736     885     887    1036
        0   40101   10101   20101   30101
 
      887     737     886     888    1037
        0   40101   10101   20101   30101
 
      888     738     887     889    1038
        0   40101   10101   20101   30101
 
      889     739     888     890    1039
        0   40101   10101   20101   30101
 
      890     740     889     891    1040
        0   40101   10101   20101   30101
 
      891     741     890     892    1041
        0   40101   10101   20101   30101
 
      892     742     891     893    1042
        0   40101   10101   20101   30101
 
      893     743     892     894    1043
        0   40101   10101   20101   30101
 
      894     744     893     895    1044
        0   40101   10101   20101   30101
 
      895     894    1045
        0   10101   30101
 


 


 


 


 


 


 


 


 


 


 


 


 


 


 


 


 


 


 


 


 


 


 


 


 


 


 


 


 


 


 


 


 


 


 


 


 


 


 


 


 


 


 


 


 


 


 


 


 


 


 


 


 


 


 


 


 


 


 


 


 


 


 


 


 


 


 


 


 


 


 


 


 


 


 


 


 


 


 


 


 


 


 


 


 


 


 


 


 


 


 


 


 


 


 


 


 


 


 


 


 


 


 


 


 


 


 


 


 


 


 


 


 


 


 


 


 


 


 


 


 


 


 


 


 


 


 


 


 


 


 


 


 


 


 


 


 


 


 


 
     1035     885    1036    1185
        0   40101   20101   30101
 
     1036     886    1035    1037    1186
        0   40101   10101   20101   30101
 
     1037     887    1036    1038    1187
        0   40101   10101   20101   30101
 
     1038     888    1037    1039    1188
        0   40101   10101   20101   30101
 
     1039     889    1038    1040    1189
        0   40101   10101   20101   30101
 
     1040     890    1039    1041    1190
        0   40101   10101   20101   30101
 
     1041     891    1040    1042    1191
        0   40101   10101   20101   30101
 
     1042     892    1041    1043    1192
        0   40101   10101   20101   30101
 
     1043     893    1042    1044    1193
        0   40101   10101   20101   30101
 
     1044     894    1043    1045    1194
        0   40101   10101   20101   30101
 
     1045     895    1044    1046    1195
        0   40101   10101   20101   30101
 
     1046    1045    1196
        0   10101   30101
 


 


 


 


 


 


 


 


 


 


 


 


 


 


 


 


 


 


 


 


 


 


 


 


 


 


 


 


 


 


 


 


 


 


 


 


 


 


 


 


 


 


 


 


 


 


 


 


 


 


 


 


 


 


 


 


 


 


 


 


 


 


 


 


 


 


 


 


 


 


 


 


 


 


 


 


 


 


 


 


 


 


 


 


 


 


 


 


 


 


 


 


 


 


 


 


 


 


 


 


 


 


 


 


 


 


 


 


 


 


 


 


 


 


 


 


 


 


 


 


 


 


 


 


 


 


 


 


 


 


 


 


 


 


 


 


 


 


 
     1185    1035    1186
        0   40101   20101
 
     1186    1036    1185    1187    1336
        0   40101   10101   20101   30101
 
     1187    1037    1186    1188    1337
        0   40101   10101   20101   30101
 
     1188    1038    1187    1189    1338
        0   40101   10101   20101   30101
 
     1189    1039    1188    1190    1339
        0   40101   10101   20101   30101
 
     1190    1040    1189    1191    1340
        0   40101   10101   20101   30101
 
     1191    1041    1190    1192    1341
        0   40101   10101   20101   30101
 
     1192    1042    1191    1193    1342
        0   40101   10101   20101   30101
 
     1193    1043    1192    1194    1343
        0   40101   10101   20101   30101
 
     1194    1044    1193    1195    1344
        0   40101   10101   20101   30101
 
     1195    1045    1194    1196    1345
        0   40101   10101   20101   30101
 
     1196    1046    1195    1197    1346
        0   40101   10101   20101   30101
 
     1197    1196    1347
        0   10101   30101
 


 


 


 


 


 


 


 


 


 


 


 


 


 


 


 


 


 


 


 


 


 


 


 


 


 


 


 


 


 


 


 


 


 


 


 


 


 


 


 


 


 


 


 


 


 


 


 


 


 


 


 


 


 


 


 


 


 


 


 


 


 


 


 


 


 


 


 


 


 


 


 


 


 


 


 


 


 


 


 


 


 


 


 


 


 


 


 


 


 


 


 


 


 


 


 


 


 


 


 


 


 


 


 


 


 


 


 


 


 


 


 


 


 


 


 


 


 


 


 


 


 


 


 


 


 


 


 


 


 


 


 


 


 


 


 


 


 


 
     1336    1186    1337
        0   40101   20101
 
     1337    1187    1336    1338    1487
        0   40101   10101   20101   30101
 
     1338    1188    1337    1339    1488
        0   40101   10101   20101   30101
 
     1339    1189    1338    1340    1489
        0   40101   10101   20101   30101
 
     1340    1190    1339    1341    1490
        0   40101   10101   20101   30101
 
     1341    1191    1340    1342    1491
        0   40101   10101   20101   30101
 
     1342    1192    1341    1343    1492
        0   40101   10101   20101   30101
 
     1343    1193    1342    1344    1493
        0   40101   10101   20101   30101
 
     1344    1194    1343    1345    1494
        0   40101   10101   20101   30101
 
     1345    1195    1344    1346    1495
        0   40101   10101   20101   30101
 
     1346    1196    1345    1347    1496
        0   40101   10101   20101   30101
 
     1347    1197    1346    1497
        0   40101   10101   30101
 


 


 


 


 


 


 


 


 


 


 


 


 


 


 


 


 


 


 


 


 


 


 


 


 


 


 


 


 


 


 


 


 


 


 


 


 


 


 


 


 


 


 


 


 


 


 


 


 


 


 


 


 


 


 


 


 


 


 


 


 


 


 


 


 


 


 


 


 


 


 


 


 


 


 


 


 


 


 


 


 


 


 


 


 


 


 


 


 


 


 


 


 


 


 


 


 


 


 


 


 


 


 


 


 


 


 


 


 


 


 


 


 


 


 


 


 


 


 


 


 


 


 


 


 


 


 


 


 


 


 


 


 


 


 


 


 


 


 


 
     1487    1337    1488
        0   40101   20101
 
     1488    1338    1487    1489
        0   40101   10101   20101
 
     1489    1339    1488    1490    1639
        0   40101   10101   20101   30101
 
     1490    1340    1489    1491    1640
        0   40101   10101   20101   30101
 
     1491    1341    1490    1492    1641
        0   40101   10101   20101   30101
 
     1492    1342    1491    1493    1642
        0   40101   10101   20101   30101
 
     1493    1343    1492    1494    1643
        0   40101   10101   20101   30101
 
     1494    1344    1493    1495    1644
        0   40101   10101   20101   30101
 
     1495    1345    1494    1496    1645
        0   40101   10101   20101   30101
 
     1496    1346    1495    1497    1646
        0   40101   10101   20101   30101
 
     1497    1347    1496
        0   40101   10101
 


 


 


 


 


 


 


 


 


 


 


 


 


 


 


 


 


 


 


 


 


 


 


 


 


 


 


 


 


 


 


 


 


 


 


 


 


 


 


 


 


 


 


 


 


 


 


 


 


 


 


 


 


 


 


 


 


 


 


 


 


 


 


 


 


 


 


 


 


 


 


 


 


 


 


 


 


 


 


 


 


 


 


 


 


 


 


 


 


 


 


 


 


 


 


 


 


 


 


 


 


 


 


 


 


 


 


 


 


 


 


 


 


 


 


 


 


 


 


 


 


 


 


 


 


 


 


 


 


 


 


 


 


 


 


 


 


 


 


 


 


 
     1639    1489    1640    1789
        0   40101   20101   30101
 
     1640    1490    1639    1641    1790
        0   40101   10101   20101   30101
 
     1641    1491    1640    1642    1791
        0   40101   10101   20101   30101
 
     1642    1492    1641    1643    1792
        0   40101   10101   20101   30101
 
     1643    1493    1642    1644    1793
        0   40101   10101   20101   30101
 
     1644    1494    1643    1645    1794
        0   40101   10101   20101   30101
 
     1645    1495    1644    1646    1795
        0   40101   10101   20101   30101
 
     1646    1496    1645    1796
        0   40101   10101   30101
 


 


 


 


 


 


 


 


 


 


 


 


 


 


 


 


 


 


 


 


 


 


 


 


 


 


 


 


 


 


 


 


 


 


 


 


 


 


 


 


 


 


 


 


 


 


 


 


 


 


 


 


 


 


 


 


 


 


 


 


 


 


 


 


 


 


 


 


 


 


 


 


 


 


 


 


 


 


 


 


 


 


 


 


 


 


 


 


 


 


 


 


 


 


 


 


 


 


 


 


 


 


 


 


 


 


 


 


 


 


 


 


 


 


 


 


 


 


 


 


 


 


 


 


 


 


 


 


 


 


 


 


 


 


 


 


 


 


 


 


 


 
     1788    1789
        0   20101
 
     1789    1639    1788    1790    1939
        0   40101   10101   20101   30101
 
     1790    1640    1789    1791    1940
        0   40101   10101   20101   30101
 
     1791    1641    1790    1792    1941
        0   40101   10101   20101   30101
 
     1792    1642    1791    1793    1942
        0   40101   10101   20101   30101
 
     1793    1643    1792    1794    1943
        0   40101   10101   20101   30101
 
     1794    1644    1793    1795    1944
        0   40101   10101   20101   30101
 
     1795    1645    1794    1796    1945
        0   40101   10101   20101   30101
 
     1796    1646    1795    1946
        0   40101   10101   30101
 


 


 


 


 


 


 


 


 


 


 


 


 


 


 


 


 


 


 


 


 


 


 


 


 


 


 


 


 


 


 


 


 


 


 


 


 


 


 


 


 


 


 


 


 


 


 


 


 


 


 


 


 


 


 


 


 


 


 


 


 


 


 


 


 


 


 


 


 


 


 


 


 


 


 


 


 


 


 


 


 


 


 


 


 


 


 


 


 


 


 


 


 


 


 


 


 


 


 


 


 


 


 


 


 


 


 


 


 


 


 


 


 


 


 


 


 


 


 


 


 


 


 


 


 


 


 


 


 


 


 


 


 


 


 


 


 


 


 


 


 


 


 
     1939    1789    1940
        0   40101   20101
 
     1940    1790    1939    1941
        0   40101   10101   20101
 
     1941    1791    1940    1942    2091
        0   40101   10101   20101   30101
 
     1942    1792    1941    1943    2092
        0   40101   10101   20101   30101
 
     1943    1793    1942    1944    2093
        0   40101   10101   20101   30101
 
     1944    1794    1943    1945    2094
        0   40101   10101   20101   30101
 
     1945    1795    1944    1946    2095
        0   40101   10101   20101   30101
 
     1946    1796    1945    2096
        0   40101   10101   30101
 


 


 


 


 


 


 


 


 


 


 


 


 


 


 


 


 


 


 


 


 


 


 


 


 


 


 


 


 


 


 


 


 


 


 


 


 


 


 


 


 


 


 


 


 


 


 


 


 


 


 


 


 


 


 


 


 


 


 


 


 


 


 


 


 


 


 


 


 


 


 


 


 


 


 


 


 


 


 


 


 


 


 


 


 


 


 


 


 


 


 


 


 


 


 


 


 


 


 


 


 


 


 


 


 


 


 


 


 


 


 


 


 


 


 


 


 


 


 


 


 


 


 


 


 


 


 


 


 


 


 


 


 


 


 


 


 


 


 


 


 


 


 


 


 
     2091    1941    2092    2241
        0   40101   20101   30101
 
     2092    1942    2091    2093    2242
        0   40101   10101   20101   30101
 
     2093    1943    2092    2094    2243
        0   40101   10101   20101   30101
 
     2094    1944    2093    2095    2244
        0   40101   10101   20101   30101
 
     2095    1945    2094    2096    2245
        0   40101   10101   20101   30101
 
     2096    1946    2095
        0   40101   10101
 


 


 


 


 


 


 


 


 


 


 


 


 


 


 


 


 


 


 


 


 


 


 


 


 


 


 


 


 


 


 


 


 


 


 


 


 


 


 


 


 


 


 


 


 


 


 


 


 


 


 


 


 


 


 


 


 


 


 


 


 


 


 


 


 


 


 


 


 


 


 


 


 


 


 


 


 


 


 


 


 


 


 


 


 


 


 


 


 


 


 


 


 


 


 


 


 


 


 


 


 


 


 


 


 


 


 


 


 


 


 


 


 


 


 


 


 


 


 


 


 


 


 


 


 


 


 


 


 


 


 


 


 


 


 


 
     2232    2233    2382
        0   20101   30101
 
     2233    2232    2234    2383
        0   10101   20101   30101
 
     2234    2233    2235    2384
        0   10101   20101   30101
 
     2235    2234    2385
        0   10101   30101
 


 
     2237    2238    2387
        0   20101   30101
 
     2238    2237    2239    2388
        0   10101   20101   30101
 
     2239    2238    2240    2389
        0   10101   20101   30101
 
     2240    2239    2241    2390
        0   10101   20101   30101
 
     2241    2091    2240    2242    2391
        0   40101   10101   20101   30101
 
     2242    2092    2241    2243    2392
        0   40101   10101   20101   30101
 
     2243    2093    2242    2244    2393
        0   40101   10101   20101   30101
 
     2244    2094    2243    2245    2394
        0   40101   10101   20101   30101
 
     2245    2095    2244    2395
        0   40101   10101   30101
 


 


 


 


 


 


 


 


 


 


 


 


 


 


 


 


 


 


 


 


 


 


 


 


 


 


 


 


 


 


 


 


 


 


 


 


 


 


 


 


 


 


 


 


 


 


 


 


 


 


 


 


 


 


 


 


 


 


 


 


 


 


 


 


 


 


 


 


 


 


 


 


 


 


 


 


 


 


 


 


 


 


 


 


 


 


 


 


 


 


 


 


 


 


 


 


 


 


 


 


 


 


 


 


 


 


 


 


 


 


 


 


 


 


 


 


 


 


 


 


 


 


 


 


 


 


 


 


 


 


 


 


 


 


 


 
     2381    2382    2531
        0   20101   30101
 
     2382    2232    2381    2383    2532
        0   40101   10101   20101   30101
 
     2383    2233    2382    2384    2533
        0   40101   10101   20101   30101
 
     2384    2234    2383    2385    2534
        0   40101   10101   20101   30101
 
     2385    2235    2384    2386    2535
        0   40101   10101   20101   30101
 
     2386    2385    2387    2536
        0   10101   20101   30101
 
     2387    2237    2386    2388    2537
        0   40101   10101   20101   30101
 
     2388    2238    2387    2389    2538
        0   40101   10101   20101   30101
 
     2389    2239    2388    2390    2539
        0   40101   10101   20101   30101
 
     2390    2240    2389    2391    2540
        0   40101   10101   20101   30101
 
     2391    2241    2390    2392    2541
        0   40101   10101   20101   30101
 
     2392    2242    2391    2393    2542
        0   40101   10101   20101   30101
 
     2393    2243    2392    2394    2543
        0   40101   10101   20101   30101
 
     2394    2244    2393    2395    2544
        0   40101   10101   20101   30101
 
     2395    2245    2394    2545
        0   40101   10101   30101
 


 


 


 


 


 


 


 


 


 


 


 


 


 


 


 


 


 


 


 


 


 


 


 


 


 


 


 


 


 


 


 


 


 


 


 


 


 


 


 


 


 


 


 


 


 


 


 


 


 


 


 


 


 


 


 


 


 


 


 


 


 


 


 


 


 


 


 


 


 


 


 


 


 


 


 


 


 


 


 


 


 


 


 


 


 


 


 


 


 


 


 


 


 


 


 


 


 


 


 


 


 


 


 


 


 


 


 


 


 


 


 


 


 


 


 


 


 


 


 


 


 


 


 


 


 


 


 


 


 


 


 


 


 


 


 
     2531    2381    2532    2681
        0   40101   20101   30101
 
     2532    2382    2531    2533    2682
        0   40101   10101   20101   30101
 
     2533    2383    2532    2534    2683
        0   40101   10101   20101   30101
 
     2534    2384    2533    2535    2684
        0   40101   10101   20101   30101
 
     2535    2385    2534    2536    2685
        0   40101   10101   20101   30101
 
     2536    2386    2535    2537    2686
        0   40101   10101   20101   30101
 
     2537    2387    2536    2538    2687
        0   40101   10101   20101   30101
 
     2538    2388    2537    2539    2688
        0   40101   10101   20101   30101
 
     2539    2389    2538    2540    2689
        0   40101   10101   20101   30101
 
     2540    2390    2539    2541    2690
        0   40101   10101   20101   30101
 
     2541    2391    2540    2542    2691
        0   40101   10101   20101   30101
 
     2542    2392    2541    2543    2692
        0   40101   10101   20101   30101
 
     2543    2393    2542    2544    2693
        0   40101   10101   20101   30101
 
     2544    2394    2543    2545    2694
        0   40101   10101   20101   30101
 
     2545    2395    2544    2695
        0   40101   10101   30101
 


 


 


 


 


 


 


 


 


 


 


 


 


 


 


 


 


 


 


 


 


 


 


 


 


 


 


 


 


 


 


 


 


 


 


 


 


 


 


 


 


 


 


 


 


 


 


 


 


 


 


 


 


 


 


 


 


 


 


 


 


 


 


 


 


 


 


 


 


 


 


 


 


 


 


 


 


 


 


 


 


 


 


 


 


 


 


 


 


 


 


 


 


 


 


 


 


 


 


 


 


 


 


 


 


 


 


 


 


 


 


 


 


 


 


 


 


 


 


 


 


 


 


 


 


 


 


 


 


 


 


 


 


 


 
     2680    2681    2830
        0   20101   30101
 
     2681    2531    2680    2682    2831
        0   40101   10101   20101   30101
 
     2682    2532    2681    2683    2832
        0   40101   10101   20101   30101
 
     2683    2533    2682    2684    2833
        0   40101   10101   20101   30101
 
     2684    2534    2683    2685    2834
        0   40101   10101   20101   30101
 
     2685    2535    2684    2686    2835
        0   40101   10101   20101   30101
 
     2686    2536    2685    2687    2836
        0   40101   10101   20101   30101
 
     2687    2537    2686    2688    2837
        0   40101   10101   20101   30101
 
     2688    2538    2687    2689    2838
        0   40101   10101   20101   30101
 
     2689    2539    2688    2690    2839
        0   40101   10101   20101   30101
 
     2690    2540    2689    2691    2840
        0   40101   10101   20101   30101
 
     2691    2541    2690    2692    2841
        0   40101   10101   20101   30101
 
     2692    2542    2691    2693    2842
        0   40101   10101   20101   30101
 
     2693    2543    2692    2694    2843
        0   40101   10101   20101   30101
 
     2694    2544    2693    2695    2844
        0   40101   10101   20101   30101
 
     2695    2545    2694    2845
        0   40101   10101   30101
 


 


 


 


 


 


 


 


 


 


 


 


 


 


 


 


 


 


 


 


 


 


 


 


 


 


 


 


 


 


 


 


 


 


 


 


 


 


 


 


 


 


 


 


 


 


 


 


 


 


 


 


 


 


 


 


 


 


 


 


 


 


 


 


 


 


 


 


 


 


 


 


 


 


 


 


 


 


 


 


 


 


 


 


 


 


 


 


 


 


 


 


 


 


 


 


 


 


 


 


 


 


 


 


 


 


 


 


 


 


 


 


 


 


 


 


 


 


 


 


 


 


 


 


 


 


 


 


 


 


 


 


 


 


 
     2830    2680    2831    2980
        0   40101   20101   30101
 
     2831    2681    2830    2832    2981
        0   40101   10101   20101   30101
 
     2832    2682    2831    2833    2982
        0   40101   10101   20101   30101
 
     2833    2683    2832    2834    2983
        0   40101   10101   20101   30101
 
     2834    2684    2833    2835    2984
        0   40101   10101   20101   30101
 
     2835    2685    2834    2836    2985
        0   40101   10101   20101   30101
 
     2836    2686    2835    2837    2986
        0   40101   10101   20101   30101
 
     2837    2687    2836    2838    2987
        0   40101   10101   20101   30101
 
     2838    2688    2837    2839    2988
        0   40101   10101   20101   30101
 
     2839    2689    2838    2840    2989
        0   40101   10101   20101   30101
 
     2840    2690    2839    2841    2990
        0   40101   10101   20101   30101
 
     2841    2691    2840    2842    2991
        0   40101   10101   20101   30101
 
     2842    2692    2841    2843    2992
        0   40101   10101   20101   30101
 
     2843    2693    2842    2844    2993
        0   40101   10101   20101   30101
 
     2844    2694    2843    2845    2994
        0   40101   10101   20101   30101
 
     2845    2695    2844    2995
        0   40101   10101   30101
 


 


 


 


 


 


 


 


 


 


 


 


 


 


 


 


 


 


 


 


 


 


 


 


 


 


 


 


 


 


 


 


 


 


 


 


 


 


 


 


 


 


 


 


 


 


 


 


 


 


 


 


 


 


 


 


 


 


 


 


 


 


 


 


 


 


 


 


 


 


 


 


 


 


 


 


 


 


 


 


 


 


 


 


 


 


 


 


 


 


 


 


 


 


 


 


 


 


 


 


 


 


 


 


 


 


 


 


 


 


 


 


 


 


 


 


 


 


 


 


 


 


 


 


 


 


 


 


 


 


 


 


 


 


 
     2980    2830    2981
        0   40101   20101
 
     2981    2831    2980    2982    3131
        0   40101   10101   20101   30101
 
     2982    2832    2981    2983    3132
        0   40101   10101   20101   30101
 
     2983    2833    2982    2984    3133
        0   40101   10101   20101   30101
 
     2984    2834    2983    2985    3134
        0   40101   10101   20101   30101
 
     2985    2835    2984    2986    3135
        0   40101   10101   20101   30101
 
     2986    2836    2985    2987    3136
        0   40101   10101   20101   30101
 
     2987    2837    2986    2988    3137
        0   40101   10101   20101   30101
 
     2988    2838    2987    2989    3138
        0   40101   10101   20101   30101
 
     2989    2839    2988    2990    3139
        0   40101   10101   20101   30101
 
     2990    2840    2989    2991    3140
        0   40101   10101   20101   30101
 
     2991    2841    2990    2992    3141
        0   40101   10101   20101   30101
 
     2992    2842    2991    2993    3142
        0   40101   10101   20101   30101
 
     2993    2843    2992    2994    3143
        0   40101   10101   20101   30101
 
     2994    2844    2993    2995    3144
        0   40101   10101   20101   30101
 
     2995    2845    2994
        0   40101   10101
 


 


 


 


 


 


 


 


 


 


 


 


 


 


 


 


 


 


 


 


 


 


 


 


 


 


 


 


 


 


 


 


 


 


 


 


 


 


 


 


 


 


 


 


 


 


 


 


 


 


 


 


 


 


 


 


 


 


 


 


 


 


 


 


 


 


 


 


 


 


 


 


 


 


 


 


 


 


 


 


 


 


 


 


 


 


 


 


 


 


 


 


 


 


 


 


 


 


 


 


 


 


 


 


 


 


 


 


 


 


 


 


 


 


 


 


 


 


 


 


 


 


 


 


 


 


 


 


 


 


 


 


 


 


 


 
     3131    2981    3132    3281
        0   40101   20101   30101
 
     3132    2982    3131    3133    3282
        0   40101   10101   20101   30101
 
     3133    2983    3132    3134    3283
        0   40101   10101   20101   30101
 
     3134    2984    3133    3135    3284
        0   40101   10101   20101   30101
 
     3135    2985    3134    3136    3285
        0   40101   10101   20101   30101
 
     3136    2986    3135    3137    3286
        0   40101   10101   20101   30101
 
     3137    2987    3136    3138    3287
        0   40101   10101   20101   30101
 
     3138    2988    3137    3139    3288
        0   40101   10101   20101   30101
 
     3139    2989    3138    3140    3289
        0   40101   10101   20101   30101
 
     3140    2990    3139    3141    3290
        0   40101   10101   20101   30101
 
     3141    2991    3140    3142    3291
        0   40101   10101   20101   30101
 
     3142    2992    3141    3143    3292
        0   40101   10101   20101   30101
 
     3143    2993    3142    3144    3293
        0   40101   10101   20101   30101
 
     3144    2994    3143    3294
        0   40101   10101   30101
 


 


 


 


 


 


 


 


 


 


 


 


 


 


 


 


 


 


 


 


 


 


 


 


 


 


 


 


 


 


 


 


 


 


 


 


 


 


 


 


 


 


 


 


 


 


 


 


 


 


 


 


 


 


 


 


 


 


 


 


 


 


 


 


 


 


 


 


 


 


 


 


 


 


 


 


 


 


 


 


 


 


 


 


 


 


 


 


 


 


 


 


 


 


 


 


 


 


 


 


 


 


 


 


 


 


 


 


 


 


 


 


 


 


 


 


 


 


 


 


 


 


 


 


 


 


 


 


 


 


 


 


 


 


 


 
     3280    3281    3430
        0   20101   30101
 
     3281    3131    3280    3282    3431
        0   40101   10101   20101   30101
 
     3282    3132    3281    3283    3432
        0   40101   10101   20101   30101
 
     3283    3133    3282    3284    3433
        0   40101   10101   20101   30101
 
     3284    3134    3283    3285    3434
        0   40101   10101   20101   30101
 
     3285    3135    3284    3286    3435
        0   40101   10101   20101   30101
 
     3286    3136    3285    3287    3436
        0   40101   10101   20101   30101
 
     3287    3137    3286    3288    3437
        0   40101   10101   20101   30101
 
     3288    3138    3287    3289    3438
        0   40101   10101   20101   30101
 
     3289    3139    3288    3290    3439
        0   40101   10101   20101   30101
 
     3290    3140    3289    3291    3440
        0   40101   10101   20101   30101
 
     3291    3141    3290    3292    3441
        0   40101   10101   20101   30101
 
     3292    3142    3291    3293    3442
        0   40101   10101   20101   30101
 
     3293    3143    3292    3294    3443
        0   40101   10101   20101   30101
 
     3294    3144    3293    3444
        0   40101   10101   30101
 


 


 


 


 


 


 


 


 


 


 


 


 


 


 


 


 


 


 


 


 


 


 


 


 


 


 


 


 


 


 


 


 


 


 


 


 


 


 


 


 


 


 


 


 


 


 


 


 


 


 


 


 


 


 


 


 


 


 


 


 


 


 


 


 


 


 


 


 


 


 


 


 


 


 


 


 


 


 


 


 


 


 


 


 


 


 


 


 


 


 


 


 


 


 


 


 


 


 


 


 


 


 


 


 


 


 


 


 


 


 


 


 


 


 


 


 


 


 


 


 


 


 


 


 


 


 


 


 


 


 


 


 


 
     3428    3429    3578
        0   20101   30101
 
     3429    3428    3430    3579
        0   10101   20101   30101
 
     3430    3280    3429    3431    3580
        0   40101   10101   20101   30101
 
     3431    3281    3430    3432    3581
        0   40101   10101   20101   30101
 
     3432    3282    3431    3433    3582
        0   40101   10101   20101   30101
 
     3433    3283    3432    3434    3583
        0   40101   10101   20101   30101
 
     3434    3284    3433    3435    3584
        0   40101   10101   20101   30101
 
     3435    3285    3434    3436    3585
        0   40101   10101   20101   30101
 
     3436    3286    3435    3437    3586
        0   40101   10101   20101   30101
 
     3437    3287    3436    3438    3587
        0   40101   10101   20101   30101
 
     3438    3288    3437    3439    3588
        0   40101   10101   20101   30101
 
     3439    3289    3438    3440    3589
        0   40101   10101   20101   30101
 
     3440    3290    3439    3441    3590
        0   40101   10101   20101   30101
 
     3441    3291    3440    3442    3591
        0   40101   10101   20101   30101
 
     3442    3292    3441    3443    3592
        0   40101   10101   20101   30101
 
     3443    3293    3442    3444    3593
        0   40101   10101   20101   30101
 
     3444    3294    3443    3594
        0   40101   10101   30101
 


 


 


 


 


 


 


 


 


 


 


 


 


 


 


 


 


 


 


 


 


 


 


 


 


 


 


 


 


 


 


 


 


 


 


 


 


 


 


 


 


 


 


 


 


 


 


 


 


 


 


 


 


 


 


 


 


 


 


 


 


 


 


 


 


 


 


 


 


 


 


 


 


 


 


 


 


 


 


 


 


 


 


 


 


 


 


 


 


 


 


 


 


 


 


 


 


 


 


 


 


 


 


 


 


 


 


 


 


 


 


 


 


 


 


 


 


 


 


 


 


 


 


 


 


 


 


 


 


 


 


 
     3576    3577    3726
        0   20101   30101
 
     3577    3576    3578    3727
        0   10101   20101   30101
 
     3578    3428    3577    3579    3728
        0   40101   10101   20101   30101
 
     3579    3429    3578    3580    3729
        0   40101   10101   20101   30101
 
     3580    3430    3579    3581    3730
        0   40101   10101   20101   30101
 
     3581    3431    3580    3582    3731
        0   40101   10101   20101   30101
 
     3582    3432    3581    3583    3732
        0   40101   10101   20101   30101
 
     3583    3433    3582    3584    3733
        0   40101   10101   20101   30101
 
     3584    3434    3583    3585    3734
        0   40101   10101   20101   30101
 
     3585    3435    3584    3586    3735
        0   40101   10101   20101   30101
 
     3586    3436    3585    3587    3736
        0   40101   10101   20101   30101
 
     3587    3437    3586    3588    3737
        0   40101   10101   20101   30101
 
     3588    3438    3587    3589    3738
        0   40101   10101   20101   30101
 
     3589    3439    3588    3590    3739
        0   40101   10101   20101   30101
 
     3590    3440    3589    3591    3740
        0   40101   10101   20101   30101
 
     3591    3441    3590    3592    3741
        0   40101   10101   20101   30101
 
     3592    3442    3591    3593    3742
        0   40101   10101   20101   30101
 
     3593    3443    3592    3594    3743
        0   40101   10101   20101   30101
 
     3594    3444    3593    3744
        0   40101   10101   30101
 


 


 


 


 


 


 


 


 


 


 


 


 


 


 


 


 


 


 


 


 


 


 


 


 


 


 


 


 


 


 


 


 


 


 


 


 


 


 


 


 


 


 


 


 


 


 


 


 


 


 


 


 


 


 


 


 


 


 


 


 


 


 


 


 


 


 


 


 


 


 


 


 


 


 


 


 


 


 


 


 


 


 


 


 


 


 


 


 


 


 


 


 


 


 


 


 


 


 


 


 


 


 


 


 


 


 


 


 


 


 


 


 


 


 


 


 


 


 


 


 


 


 


 


 


 


 


 


 


 


 
     3725    3726    3875
        0   20101   30101
 
     3726    3576    3725    3727    3876
        0   40101   10101   20101   30101
 
     3727    3577    3726    3728    3877
        0   40101   10101   20101   30101
 
     3728    3578    3727    3729    3878
        0   40101   10101   20101   30101
 
     3729    3579    3728    3730    3879
        0   40101   10101   20101   30101
 
     3730    3580    3729    3731    3880
        0   40101   10101   20101   30101
 
     3731    3581    3730    3732    3881
        0   40101   10101   20101   30101
 
     3732    3582    3731    3733    3882
        0   40101   10101   20101   30101
 
     3733    3583    3732    3734    3883
        0   40101   10101   20101   30101
 
     3734    3584    3733    3735    3884
        0   40101   10101   20101   30101
 
     3735    3585    3734    3736    3885
        0   40101   10101   20101   30101
 
     3736    3586    3735    3737    3886
        0   40101   10101   20101   30101
 
     3737    3587    3736    3738    3887
        0   40101   10101   20101   30101
 
     3738    3588    3737    3739    3888
        0   40101   10101   20101   30101
 
     3739    3589    3738    3740    3889
        0   40101   10101   20101   30101
 
     3740    3590    3739    3741    3890
        0   40101   10101   20101   30101
 
     3741    3591    3740    3742    3891
        0   40101   10101   20101   30101
 
     3742    3592    3741    3743    3892
        0   40101   10101   20101   30101
 
     3743    3593    3742    3744    3893
        0   40101   10101   20101   30101
 
     3744    3594    3743    3894
        0   40101   10101   30101
 


 


 


 


 


 


 


 


 


 


 


 


 


 


 


 


 


 


 


 


 


 


 


 


 


 


 


 


 


 


 


 


 


 


 


 


 


 


 


 


 


 


 


 


 


 


 


 


 


 


 


 


 


 


 


 


 


 


 


 


 


 


 


 


 


 


 


 


 


 


 


 


 


 


 


 


 


 


 


 


 


 


 


 


 


 


 


 


 


 


 


 


 


 


 


 


 


 


 


 


 


 


 


 


 


 


 


 


 


 


 


 


 


 


 


 


 


 


 


 


 


 


 


 


 


 


 


 
     3872    3873    4022
        0   20101   30101
 
     3873    3872    3874    4023
        0   10101   20101   30101
 
     3874    3873    3875    4024
        0   10101   20101   30101
 
     3875    3725    3874    3876    4025
        0   40101   10101   20101   30101
 
     3876    3726    3875    3877    4026
        0   40101   10101   20101   30101
 
     3877    3727    3876    3878    4027
        0   40101   10101   20101   30101
 
     3878    3728    3877    3879    4028
        0   40101   10101   20101   30101
 
     3879    3729    3878    3880    4029
        0   40101   10101   20101   30101
 
     3880    3730    3879    3881    4030
        0   40101   10101   20101   30101
 
     3881    3731    3880    3882    4031
        0   40101   10101   20101   30101
 
     3882    3732    3881    3883    4032
        0   40101   10101   20101   30101
 
     3883    3733    3882    3884    4033
        0   40101   10101   20101   30101
 
     3884    3734    3883    3885    4034
        0   40101   10101   20101   30101
 
     3885    3735    3884    3886    4035
        0   40101   10101   20101   30101
 
     3886    3736    3885    3887    4036
        0   40101   10101   20101   30101
 
     3887    3737    3886    3888    4037
        0   40101   10101   20101   30101
 
     3888    3738    3887    3889    4038
        0   40101   10101   20101   30101
 
     3889    3739    3888    3890    4039
        0   40101   10101   20101   30101
 
     3890    3740    3889    3891    4040
        0   40101   10101   20101   30101
 
     3891    3741    3890    3892    4041
        0   40101   10101   20101   30101
 
     3892    3742    3891    3893    4042
        0   40101   10101   20101   30101
 
     3893    3743    3892    3894    4043
        0   40101   10101   20101   30101
 
     3894    3744    3893
        0   40101   10101
 


 


 


 


 


 


 


 


 


 


 


 


 


 


 


 


 


 


 


 


 


 


 


 


 


 


 


 


 


 


 


 


 


 


 


 


 


 


 


 


 


 


 


 


 


 


 


 


 


 


 


 


 


 


 


 


 


 


 


 


 


 


 


 


 


 


 


 


 


 


 


 


 


 


 


 


 


 


 


 


 


 


 


 


 


 


 


 


 


 


 


 


 


 


 


 


 


 


 


 


 


 


 


 


 


 


 


 


 


 


 


 


 


 


 


 


 


 


 


 


 


 


 


 
     4018    4019    4168
        0   20101   30101
 
     4019    4018    4020    4169
        0   10101   20101   30101
 
     4020    4019    4021    4170
        0   10101   20101   30101
 
     4021    4020    4022    4171
        0   10101   20101   30101
 
     4022    3872    4021    4023    4172
        0   40101   10101   20101   30101
 
     4023    3873    4022    4024    4173
        0   40101   10101   20101   30101
 
     4024    3874    4023    4025    4174
        0   40101   10101   20101   30101
 
     4025    3875    4024    4026    4175
        0   40101   10101   20101   30101
 
     4026    3876    4025    4027    4176
        0   40101   10101   20101   30101
 
     4027    3877    4026    4028    4177
        0   40101   10101   20101   30101
 
     4028    3878    4027    4029    4178
        0   40101   10101   20101   30101
 
     4029    3879    4028    4030    4179
        0   40101   10101   20101   30101
 
     4030    3880    4029    4031    4180
        0   40101   10101   20101   30101
 
     4031    3881    4030    4032    4181
        0   40101   10101   20101   30101
 
     4032    3882    4031    4033    4182
        0   40101   10101   20101   30101
 
     4033    3883    4032    4034    4183
        0   40101   10101   20101   30101
 
     4034    3884    4033    4035    4184
        0   40101   10101   20101   30101
 
     4035    3885    4034    4036    4185
        0   40101   10101   20101   30101
 
     4036    3886    4035    4037    4186
        0   40101   10101   20101   30101
 
     4037    3887    4036    4038    4187
        0   40101   10101   20101   30101
 
     4038    3888    4037    4039    4188
        0   40101   10101   20101   30101
 
     4039    3889    4038    4040    4189
        0   40101   10101   20101   30101
 
     4040    3890    4039    4041    4190
        0   40101   10101   20101   30101
 
     4041    3891    4040    4042    4191
        0   40101   10101   20101   30101
 
     4042    3892    4041    4043    4192
        0   40101   10101   20101   30101
 
     4043    3893    4042    4193
        0   40101   10101   30101
 


 


 


 


 


 


 


 


 


 


 


 


 


 


 


 


 


 


 


 


 


 


 


 


 


 


 


 


 


 


 


 


 


 


 


 


 


 


 


 


 


 


 


 


 


 


 


 


 


 


 


 


 


 


 


 


 


 


 


 


 


 


 


 


 


 


 


 


 


 


 


 


 


 


 


 


 


 


 


 


 


 


 


 


 


 


 


 


 


 


 


 


 


 


 


 


 


 


 


 


 


 


 


 


 


 


 


 


 


 


 


 


 


 


 


 


 


 


 


 


 


 
     4165    4166    4315
        0   20101   30101
 
     4166    4165    4167    4316
        0   10101   20101   30101
 
     4167    4166    4168    4317
        0   10101   20101   30101
 
     4168    4018    4167    4169    4318
        0   40101   10101   20101   30101
 
     4169    4019    4168    4170    4319
        0   40101   10101   20101   30101
 
     4170    4020    4169    4171    4320
        0   40101   10101   20101   30101
 
     4171    4021    4170    4172    4321
        0   40101   10101   20101   30101
 
     4172    4022    4171    4173    4322
        0   40101   10101   20101   30101
 
     4173    4023    4172    4174    4323
        0   40101   10101   20101   30101
 
     4174    4024    4173    4175    4324
        0   40101   10101   20101   30101
 
     4175    4025    4174    4176    4325
        0   40101   10101   20101   30101
 
     4176    4026    4175    4177    4326
        0   40101   10101   20101   30101
 
     4177    4027    4176    4178    4327
        0   40101   10101   20101   30101
 
     4178    4028    4177    4179    4328
        0   40101   10101   20101   30101
 
     4179    4029    4178    4180    4329
        0   40101   10101   20101   30101
 
     4180    4030    4179    4181    4330
        0   40101   10101   20101   30101
 
     4181    4031    4180    4182    4331
        0   40101   10101   20101   30101
 
     4182    4032    4181    4183    4332
        0   40101   10101   20101   30101
 
     4183    4033    4182    4184    4333
        0   40101   10101   20101   30101
 
     4184    4034    4183    4185    4334
        0   40101   10101   20101   30101
 
     4185    4035    4184    4186    4335
        0   40101   10101   20101   30101
 
     4186    4036    4185    4187    4336
        0   40101   10101   20101   30101
 
     4187    4037    4186    4188    4337
        0   40101   10101   20101   30101
 
     4188    4038    4187    4189    4338
        0   40101   10101   20101   30101
 
     4189    4039    4188    4190    4339
        0   40101   10101   20101   30101
 
     4190    4040    4189    4191    4340
        0   40101   10101   20101   30101
 
     4191    4041    4190    4192    4341
        0   40101   10101   20101   30101
 
     4192    4042    4191    4193    4342
        0   40101   10101   20101   30101
 
     4193    4043    4192    4343
        0   40101   10101   30101
 


 


 


 


 


 


 


 


 


 


 


 


 


 


 


 


 


 


 


 


 


 


 


 


 


 


 


 


 


 


 


 


 


 


 


 


 


 


 


 


 


 


 


 


 


 


 


 


 


 


 


 


 


 


 


 


 


 


 


 


 


 


 


 


 


 


 


 


 


 


 


 


 


 


 


 


 


 


 


 


 


 


 


 


 


 


 


 


 


 


 


 


 


 


 


 


 


 


 


 


 


 


 


 


 


 


 


 


 


 


 


 


 


 


 


 


 


 


 
     4312    4313    4462
        0   20101   30101
 
     4313    4312    4314    4463
        0   10101   20101   30101
 
     4314    4313    4315    4464
        0   10101   20101   30101
 
     4315    4165    4314    4316    4465
        0   40101   10101   20101   30101
 
     4316    4166    4315    4317    4466
        0   40101   10101   20101   30101
 
     4317    4167    4316    4318    4467
        0   40101   10101   20101   30101
 
     4318    4168    4317    4319    4468
        0   40101   10101   20101   30101
 
     4319    4169    4318    4320    4469
        0   40101   10101   20101   30101
 
     4320    4170    4319    4321    4470
        0   40101   10101   20101   30101
 
     4321    4171    4320    4322    4471
        0   40101   10101   20101   30101
 
     4322    4172    4321    4323    4472
        0   40101   10101   20101   30101
 
     4323    4173    4322    4324    4473
        0   40101   10101   20101   30101
 
     4324    4174    4323    4325    4474
        0   40101   10101   20101   30101
 
     4325    4175    4324    4326    4475
        0   40101   10101   20101   30101
 
     4326    4176    4325    4327    4476
        0   40101   10101   20101   30101
 
     4327    4177    4326    4328    4477
        0   40101   10101   20101   30101
 
     4328    4178    4327    4329    4478
        0   40101   10101   20101   30101
 
     4329    4179    4328    4330    4479
        0   40101   10101   20101   30101
 
     4330    4180    4329    4331    4480
        0   40101   10101   20101   30101
 
     4331    4181    4330    4332    4481
        0   40101   10101   20101   30101
 
     4332    4182    4331    4333    4482
        0   40101   10101   20101   30101
 
     4333    4183    4332    4334    4483
        0   40101   10101   20101   30101
 
     4334    4184    4333    4335    4484
        0   40101   10101   20101   30101
 
     4335    4185    4334    4336    4485
        0   40101   10101   20101   30101
 
     4336    4186    4335    4337    4486
        0   40101   10101   20101   30101
 
     4337    4187    4336    4338    4487
        0   40101   10101   20101   30101
 
     4338    4188    4337    4339    4488
        0   40101   10101   20101   30101
 
     4339    4189    4338    4340    4489
        0   40101   10101   20101   30101
 
     4340    4190    4339    4341    4490
        0   40101   10101   20101   30101
 
     4341    4191    4340    4342    4491
        0   40101   10101   20101   30101
 
     4342    4192    4341    4343    4492
        0   40101   10101   20101   30101
 
     4343    4193    4342    4493
        0   40101   10101   30101
 


 


 


 


 


 


 


 


 


 


 


 


 


 


 


 


 


 


 


 


 


 


 


 


 


 


 


 


 


 


 


 


 


 


 


 


 


 


 


 


 


 


 


 


 


 


 


 


 


 


 


 


 


 


 


 


 


 


 


 


 


 


 


 


 


 


 


 


 


 


 


 


 


 


 


 


 


 


 


 


 


 


 


 


 


 


 


 


 


 


 


 


 


 


 


 


 


 


 


 


 


 


 


 


 


 


 


 


 


 


 


 


 


 


 


 


 


 
     4461    4462    4611
        0   20101   30101
 
     4462    4312    4461    4463    4612
        0   40101   10101   20101   30101
 
     4463    4313    4462    4464    4613
        0   40101   10101   20101   30101
 
     4464    4314    4463    4465    4614
        0   40101   10101   20101   30101
 
     4465    4315    4464    4466    4615
        0   40101   10101   20101   30101
 
     4466    4316    4465    4467    4616
        0   40101   10101   20101   30101
 
     4467    4317    4466    4468    4617
        0   40101   10101   20101   30101
 
     4468    4318    4467    4469    4618
        0   40101   10101   20101   30101
 
     4469    4319    4468    4470    4619
        0   40101   10101   20101   30101
 
     4470    4320    4469    4471    4620
        0   40101   10101   20101   30101
 
     4471    4321    4470    4472    4621
        0   40101   10101   20101   30101
 
     4472    4322    4471    4473    4622
        0   40101   10101   20101   30101
 
     4473    4323    4472    4474    4623
        0   40101   10101   20101   30101
 
     4474    4324    4473    4475    4624
        0   40101   10101   20101   30101
 
     4475    4325    4474    4476    4625
        0   40101   10101   20101   30101
 
     4476    4326    4475    4477    4626
        0   40101   10101   20101   30101
 
     4477    4327    4476    4478    4627
        0   40101   10101   20101   30101
 
     4478    4328    4477    4479    4628
        0   40101   10101   20101   30101
 
     4479    4329    4478    4480    4629
        0   40101   10101   20101   30101
 
     4480    4330    4479    4481    4630
        0   40101   10101   20101   30101
 
     4481    4331    4480    4482    4631
        0   40101   10101   20101   30101
 
     4482    4332    4481    4483    4632
        0   40101   10101   20101   30101
 
     4483    4333    4482    4484    4633
        0   40101   10101   20101   30101
 
     4484    4334    4483    4485    4634
        0   40101   10101   20101   30101
 
     4485    4335    4484    4486    4635
        0   40101   10101   20101   30101
 
     4486    4336    4485    4487    4636
        0   40101   10101   20101   30101
 
     4487    4337    4486    4488    4637
        0   40101   10101   20101   30101
 
     4488    4338    4487    4489    4638
        0   40101   10101   20101   30101
 
     4489    4339    4488    4490    4639
        0   40101   10101   20101   30101
 
     4490    4340    4489    4491    4640
        0   40101   10101   20101   30101
 
     4491    4341    4490    4492    4641
        0   40101   10101   20101   30101
 
     4492    4342    4491    4493    4642
        0   40101   10101   20101   30101
 
     4493    4343    4492    4643
        0   40101   10101   30101
 


 


 


 


 


 


 


 


 


 


 


 


 


 


 


 


 


 


 


 


 


 


 


 


 


 


 


 


 


 


 


 


 


 


 


 


 


 


 


 


 


 


 


 


 


 


 


 


 


 


 


 


 


 


 


 


 


 


 


 


 


 


 


 


 


 


 


 


 


 


 


 


 


 


 


 


 


 


 


 


 


 


 


 


 


 


 


 


 


 


 


 


 


 


 


 


 


 


 


 


 


 


 


 


 


 


 


 


 


 


 


 


 


 


 


 


 
     4610    4611    4760
        0   20101   30101
 
     4611    4461    4610    4612    4761
        0   40101   10101   20101   30101
 
     4612    4462    4611    4613    4762
        0   40101   10101   20101   30101
 
     4613    4463    4612    4614    4763
        0   40101   10101   20101   30101
 
     4614    4464    4613    4615    4764
        0   40101   10101   20101   30101
 
     4615    4465    4614    4616    4765
        0   40101   10101   20101   30101
 
     4616    4466    4615    4617    4766
        0   40101   10101   20101   30101
 
     4617    4467    4616    4618    4767
        0   40101   10101   20101   30101
 
     4618    4468    4617    4619    4768
        0   40101   10101   20101   30101
 
     4619    4469    4618    4620    4769
        0   40101   10101   20101   30101
 
     4620    4470    4619    4621    4770
        0   40101   10101   20101   30101
 
     4621    4471    4620    4622    4771
        0   40101   10101   20101   30101
 
     4622    4472    4621    4623    4772
        0   40101   10101   20101   30101
 
     4623    4473    4622    4624    4773
        0   40101   10101   20101   30101
 
     4624    4474    4623    4625    4774
        0   40101   10101   20101   30101
 
     4625    4475    4624    4626    4775
        0   40101   10101   20101   30101
 
     4626    4476    4625    4627    4776
        0   40101   10101   20101   30101
 
     4627    4477    4626    4628    4777
        0   40101   10101   20101   30101
 
     4628    4478    4627    4629    4778
        0   40101   10101   20101   30101
 
     4629    4479    4628    4630    4779
        0   40101   10101   20101   30101
 
     4630    4480    4629    4631    4780
        0   40101   10101   20101   30101
 
     4631    4481    4630    4632    4781
        0   40101   10101   20101   30101
 
     4632    4482    4631    4633    4782
        0   40101   10101   20101   30101
 
     4633    4483    4632    4634    4783
        0   40101   10101   20101   30101
 
     4634    4484    4633    4635    4784
        0   40101   10101   20101   30101
 
     4635    4485    4634    4636    4785
        0   40101   10101   20101   30101
 
     4636    4486    4635    4637    4786
        0   40101   10101   20101   30101
 
     4637    4487    4636    4638    4787
        0   40101   10101   20101   30101
 
     4638    4488    4637    4639    4788
        0   40101   10101   20101   30101
 
     4639    4489    4638    4640    4789
        0   40101   10101   20101   30101
 
     4640    4490    4639    4641    4790
        0   40101   10101   20101   30101
 
     4641    4491    4640    4642    4791
        0   40101   10101   20101   30101
 
     4642    4492    4641    4643    4792
        0   40101   10101   20101   30101
 
     4643    4493    4642    4793
        0   40101   10101   30101
 


 


 


 


 


 


 


 


 


 


 


 


 


 


 


 


 


 


 


 


 


 


 


 


 


 


 


 


 


 


 


 


 


 


 


 


 


 


 


 


 


 


 


 


 


 


 


 


 


 


 


 


 


 


 


 


 


 


 


 


 


 


 


 


 


 


 


 


 


 


 


 


 


 


 


 


 


 


 


 


 


 


 


 


 


 


 


 


 


 


 


 


 


 


 


 


 


 


 


 


 


 


 


 


 


 


 


 


 


 


 


 


 


 


 


 
     4759    4760    4909
        0   20101   30101
 
     4760    4610    4759    4761    4910
        0   40101   10101   20101   30101
 
     4761    4611    4760    4762    4911
        0   40101   10101   20101   30101
 
     4762    4612    4761    4763    4912
        0   40101   10101   20101   30101
 
     4763    4613    4762    4764    4913
        0   40101   10101   20101   30101
 
     4764    4614    4763    4765    4914
        0   40101   10101   20101   30101
 
     4765    4615    4764    4766    4915
        0   40101   10101   20101   30101
 
     4766    4616    4765    4767    4916
        0   40101   10101   20101   30101
 
     4767    4617    4766    4768    4917
        0   40101   10101   20101   30101
 
     4768    4618    4767    4769    4918
        0   40101   10101   20101   30101
 
     4769    4619    4768    4770    4919
        0   40101   10101   20101   30101
 
     4770    4620    4769    4771    4920
        0   40101   10101   20101   30101
 
     4771    4621    4770    4772    4921
        0   40101   10101   20101   30101
 
     4772    4622    4771    4773    4922
        0   40101   10101   20101   30101
 
     4773    4623    4772    4774    4923
        0   40101   10101   20101   30101
 
     4774    4624    4773    4775    4924
        0   40101   10101   20101   30101
 
     4775    4625    4774    4776    4925
        0   40101   10101   20101   30101
 
     4776    4626    4775    4777    4926
        0   40101   10101   20101   30101
 
     4777    4627    4776    4778    4927
        0   40101   10101   20101   30101
 
     4778    4628    4777    4779    4928
        0   40101   10101   20101   30101
 
     4779    4629    4778    4780    4929
        0   40101   10101   20101   30101
 
     4780    4630    4779    4781    4930
        0   40101   10101   20101   30101
 
     4781    4631    4780    4782    4931
        0   40101   10101   20101   30101
 
     4782    4632    4781    4783    4932
        0   40101   10101   20101   30101
 
     4783    4633    4782    4784    4933
        0   40101   10101   20101   30101
 
     4784    4634    4783    4785    4934
        0   40101   10101   20101   30101
 
     4785    4635    4784    4786    4935
        0   40101   10101   20101   30101
 
     4786    4636    4785    4787    4936
        0   40101   10101   20101   30101
 
     4787    4637    4786    4788    4937
        0   40101   10101   20101   30101
 
     4788    4638    4787    4789    4938
        0   40101   10101   20101   30101
 
     4789    4639    4788    4790    4939
        0   40101   10101   20101   30101
 
     4790    4640    4789    4791    4940
        0   40101   10101   20101   30101
 
     4791    4641    4790    4792    4941
        0   40101   10101   20101   30101
 
     4792    4642    4791    4793    4942
        0   40101   10101   20101   30101
 
     4793    4643    4792
        0   40101   10101
 


 


 


 


 


 


 


 


 


 


 


 


 


 


 


 


 


 


 


 


 


 


 


 


 


 


 


 


 


 


 


 


 


 


 


 


 


 


 


 


 


 


 


 


 


 


 


 


 


 


 


 


 


 


 


 


 


 


 


 


 


 


 


 


 


 


 


 


 


 


 


 


 


 


 


 


 


 


 


 


 


 


 


 


 


 


 


 


 


 


 


 


 


 


 


 


 


 


 


 


 


 


 


 


 


 


 


 


 


 


 


 


 


 


 
     4908    4909    5058
        0   20101   30101
 
     4909    4759    4908    4910    5059
        0   40101   10101   20101   30101
 
     4910    4760    4909    4911    5060
        0   40101   10101   20101   30101
 
     4911    4761    4910    4912    5061
        0   40101   10101   20101   30101
 
     4912    4762    4911    4913    5062
        0   40101   10101   20101   30101
 
     4913    4763    4912    4914    5063
        0   40101   10101   20101   30101
 
     4914    4764    4913    4915    5064
        0   40101   10101   20101   30101
 
     4915    4765    4914    4916    5065
        0   40101   10101   20101   30101
 
     4916    4766    4915    4917    5066
        0   40101   10101   20101   30101
 
     4917    4767    4916    4918    5067
        0   40101   10101   20101   30101
 
     4918    4768    4917    4919    5068
        0   40101   10101   20101   30101
 
     4919    4769    4918    4920    5069
        0   40101   10101   20101   30101
 
     4920    4770    4919    4921    5070
        0   40101   10101   20101   30101
 
     4921    4771    4920    4922    5071
        0   40101   10101   20101   30101
 
     4922    4772    4921    4923    5072
        0   40101   10101   20101   30101
 
     4923    4773    4922    4924    5073
        0   40101   10101   20101   30101
 
     4924    4774    4923    4925    5074
        0   40101   10101   20101   30101
 
     4925    4775    4924    4926    5075
        0   40101   10101   20101   30101
 
     4926    4776    4925    4927    5076
        0   40101   10101   20101   30101
 
     4927    4777    4926    4928    5077
        0   40101   10101   20101   30101
 
     4928    4778    4927    4929    5078
        0   40101   10101   20101   30101
 
     4929    4779    4928    4930    5079
        0   40101   10101   20101   30101
 
     4930    4780    4929    4931    5080
        0   40101   10101   20101   30101
 
     4931    4781    4930    4932    5081
        0   40101   10101   20101   30101
 
     4932    4782    4931    4933    5082
        0   40101   10101   20101   30101
 
     4933    4783    4932    4934    5083
        0   40101   10101   20101   30101
 
     4934    4784    4933    4935    5084
        0   40101   10101   20101   30101
 
     4935    4785    4934    4936    5085
        0   40101   10101   20101   30101
 
     4936    4786    4935    4937    5086
        0   40101   10101   20101   30101
 
     4937    4787    4936    4938    5087
        0   40101   10101   20101   30101
 
     4938    4788    4937    4939    5088
        0   40101   10101   20101   30101
 
     4939    4789    4938    4940    5089
        0   40101   10101   20101   30101
 
     4940    4790    4939    4941    5090
        0   40101   10101   20101   30101
 
     4941    4791    4940    4942    5091
        0   40101   10101   20101   30101
 
     4942    4792    4941    5092
        0   40101   10101   30101
 


 


 


 


 


 


 


 


 


 


 


 


 


 


 


 


 


 


 


 


 


 


 


 


 


 


 


 


 


 


 


 


 


 


 


 


 


 


 


 


 


 


 


 


 


 


 


 


 


 


 


 


 


 


 


 


 


 


 


 


 


 


 


 


 


 


 


 


 


 


 


 


 


 


 


 


 


 


 


 


 


 


 


 


 


 


 


 


 


 


 


 


 


 


 


 


 


 


 


 


 


 


 


 


 


 


 


 


 


 


 


 


 


 


 
     5057    5058    5207
        0   20101   30101
 
     5058    4908    5057    5059    5208
        0   40101   10101   20101   30101
 
     5059    4909    5058    5060    5209
        0   40101   10101   20101   30101
 
     5060    4910    5059    5061    5210
        0   40101   10101   20101   30101
 
     5061    4911    5060    5062    5211
        0   40101   10101   20101   30101
 
     5062    4912    5061    5063    5212
        0   40101   10101   20101   30101
 
     5063    4913    5062    5064    5213
        0   40101   10101   20101   30101
 
     5064    4914    5063    5065    5214
        0   40101   10101   20101   30101
 
     5065    4915    5064    5066    5215
        0   40101   10101   20101   30101
 
     5066    4916    5065    5067    5216
        0   40101   10101   20101   30101
 
     5067    4917    5066    5068    5217
        0   40101   10101   20101   30101
 
     5068    4918    5067    5069    5218
        0   40101   10101   20101   30101
 
     5069    4919    5068    5070    5219
        0   40101   10101   20101   30101
 
     5070    4920    5069    5071    5220
        0   40101   10101   20101   30101
 
     5071    4921    5070    5072    5221
        0   40101   10101   20101   30101
 
     5072    4922    5071    5073    5222
        0   40101   10101   20101   30101
 
     5073    4923    5072    5074    5223
        0   40101   10101   20101   30101
 
     5074    4924    5073    5075    5224
        0   40101   10101   20101   30101
 
     5075    4925    5074    5076    5225
        0   40101   10101   20101   30101
 
     5076    4926    5075    5077    5226
        0   40101   10101   20101   30101
 
     5077    4927    5076    5078    5227
        0   40101   10101   20101   30101
 
     5078    4928    5077    5079    5228
        0   40101   10101   20101   30101
 
     5079    4929    5078    5080    5229
        0   40101   10101   20101   30101
 
     5080    4930    5079    5081    5230
        0   40101   10101   20101   30101
 
     5081    4931    5080    5082    5231
        0   40101   10101   20101   30101
 
     5082    4932    5081    5083    5232
        0   40101   10101   20101   30101
 
     5083    4933    5082    5084    5233
        0   40101   10101   20101   30101
 
     5084    4934    5083    5085    5234
        0   40101   10101   20101   30101
 
     5085    4935    5084    5086    5235
        0   40101   10101   20101   30101
 
     5086    4936    5085    5087    5236
        0   40101   10101   20101   30101
 
     5087    4937    5086    5088    5237
        0   40101   10101   20101   30101
 
     5088    4938    5087    5089    5238
        0   40101   10101   20101   30101
 
     5089    4939    5088    5090    5239
        0   40101   10101   20101   30101
 
     5090    4940    5089    5091    5240
        0   40101   10101   20101   30101
 
     5091    4941    5090    5092    5241
        0   40101   10101   20101   30101
 
     5092    4942    5091    5242
        0   40101   10101   30101
 


 


 


 


 


 


 


 


 


 


 


 


 


 


 


 


 


 


 


 


 


 


 


 


 


 


 


 


 


 


 


 


 


 


 


 


 


 


 


 


 


 


 


 


 


 


 


 


 


 


 


 


 


 


 


 


 


 


 


 


 


 


 


 


 


 


 


 


 


 


 


 


 


 


 


 


 


 


 


 


 


 


 


 


 


 


 


 


 


 


 


 


 


 


 


 


 


 


 


 


 


 


 


 


 


 


 


 


 


 


 


 
     5204    5205    5354
        0   20101   30101
 
     5205    5204    5206    5355
        0   10101   20101   30101
 
     5206    5205    5207    5356
        0   10101   20101   30101
 
     5207    5057    5206    5208    5357
        0   40101   10101   20101   30101
 
     5208    5058    5207    5209    5358
        0   40101   10101   20101   30101
 
     5209    5059    5208    5210    5359
        0   40101   10101   20101   30101
 
     5210    5060    5209    5211    5360
        0   40101   10101   20101   30101
 
     5211    5061    5210    5212    5361
        0   40101   10101   20101   30101
 
     5212    5062    5211    5213    5362
        0   40101   10101   20101   30101
 
     5213    5063    5212    5214    5363
        0   40101   10101   20101   30101
 
     5214    5064    5213    5215    5364
        0   40101   10101   20101   30101
 
     5215    5065    5214    5216    5365
        0   40101   10101   20101   30101
 
     5216    5066    5215    5217    5366
        0   40101   10101   20101   30101
 
     5217    5067    5216    5218    5367
        0   40101   10101   20101   30101
 
     5218    5068    5217    5219    5368
        0   40101   10101   20101   30101
 
     5219    5069    5218    5220    5369
        0   40101   10101   20101   30101
 
     5220    5070    5219    5221    5370
        0   40101   10101   20101   30101
 
     5221    5071    5220    5222    5371
        0   40101   10101   20101   30101
 
     5222    5072    5221    5223    5372
        0   40101   10101   20101   30101
 
     5223    5073    5222    5224    5373
        0   40101   10101   20101   30101
 
     5224    5074    5223    5225    5374
        0   40101   10101   20101   30101
 
     5225    5075    5224    5226    5375
        0   40101   10101   20101   30101
 
     5226    5076    5225    5227    5376
        0   40101   10101   20101   30101
 
     5227    5077    5226    5228    5377
        0   40101   10101   20101   30101
 
     5228    5078    5227    5229    5378
        0   40101   10101   20101   30101
 
     5229    5079    5228    5230    5379
        0   40101   10101   20101   30101
 
     5230    5080    5229    5231    5380
        0   40101   10101   20101   30101
 
     5231    5081    5230    5232    5381
        0   40101   10101   20101   30101
 
     5232    5082    5231    5233    5382
        0   40101   10101   20101   30101
 
     5233    5083    5232    5234    5383
        0   40101   10101   20101   30101
 
     5234    5084    5233    5235    5384
        0   40101   10101   20101   30101
 
     5235    5085    5234    5236    5385
        0   40101   10101   20101   30101
 
     5236    5086    5235    5237    5386
        0   40101   10101   20101   30101
 
     5237    5087    5236    5238    5387
        0   40101   10101   20101   30101
 
     5238    5088    5237    5239    5388
        0   40101   10101   20101   30101
 
     5239    5089    5238    5240    5389
        0   40101   10101   20101   30101
 
     5240    5090    5239    5241    5390
        0   40101   10101   20101   30101
 
     5241    5091    5240    5242    5391
        0   40101   10101   20101   30101
 
     5242    5092    5241    5392
        0   40101   10101   30101
 


 


 


 


 


 


 


 


 


 


 


 


 


 


 


 


 


 


 


 


 


 


 


 


 


 


 


 


 


 


 


 


 


 


 


 


 


 


 


 


 


 


 


 


 


 


 


 


 


 


 


 


 


 


 


 


 


 


 


 


 


 


 


 


 


 


 


 


 


 


 


 


 


 


 


 


 


 


 


 


 


 


 


 


 


 


 


 


 


 


 


 


 


 


 


 


 


 


 


 


 


 


 


 


 


 


 


 


 


 


 


 
     5354    5204    5355    5504
        0   40101   20101   30101
 
     5355    5205    5354    5356    5505
        0   40101   10101   20101   30101
 
     5356    5206    5355    5357    5506
        0   40101   10101   20101   30101
 
     5357    5207    5356    5358    5507
        0   40101   10101   20101   30101
 
     5358    5208    5357    5359    5508
        0   40101   10101   20101   30101
 
     5359    5209    5358    5360    5509
        0   40101   10101   20101   30101
 
     5360    5210    5359    5361    5510
        0   40101   10101   20101   30101
 
     5361    5211    5360    5362    5511
        0   40101   10101   20101   30101
 
     5362    5212    5361    5363    5512
        0   40101   10101   20101   30101
 
     5363    5213    5362    5364    5513
        0   40101   10101   20101   30101
 
     5364    5214    5363    5365    5514
        0   40101   10101   20101   30101
 
     5365    5215    5364    5366    5515
        0   40101   10101   20101   30101
 
     5366    5216    5365    5367    5516
        0   40101   10101   20101   30101
 
     5367    5217    5366    5368    5517
        0   40101   10101   20101   30101
 
     5368    5218    5367    5369    5518
        0   40101   10101   20101   30101
 
     5369    5219    5368    5370    5519
        0   40101   10101   20101   30101
 
     5370    5220    5369    5371    5520
        0   40101   10101   20101   30101
 
     5371    5221    5370    5372    5521
        0   40101   10101   20101   30101
 
     5372    5222    5371    5373    5522
        0   40101   10101   20101   30101
 
     5373    5223    5372    5374    5523
        0   40101   10101   20101   30101
 
     5374    5224    5373    5375    5524
        0   40101   10101   20101   30101
 
     5375    5225    5374    5376    5525
        0   40101   10101   20101   30101
 
     5376    5226    5375    5377    5526
        0   40101   10101   20101   30101
 
     5377    5227    5376    5378    5527
        0   40101   10101   20101   30101
 
     5378    5228    5377    5379    5528
        0   40101   10101   20101   30101
 
     5379    5229    5378    5380    5529
        0   40101   10101   20101   30101
 
     5380    5230    5379    5381    5530
        0   40101   10101   20101   30101
 
     5381    5231    5380    5382    5531
        0   40101   10101   20101   30101
 
     5382    5232    5381    5383    5532
        0   40101   10101   20101   30101
 
     5383    5233    5382    5384    5533
        0   40101   10101   20101   30101
 
     5384    5234    5383    5385    5534
        0   40101   10101   20101   30101
 
     5385    5235    5384    5386    5535
        0   40101   10101   20101   30101
 
     5386    5236    5385    5387    5536
        0   40101   10101   20101   30101
 
     5387    5237    5386    5388    5537
        0   40101   10101   20101   30101
 
     5388    5238    5387    5389    5538
        0   40101   10101   20101   30101
 
     5389    5239    5388    5390    5539
        0   40101   10101   20101   30101
 
     5390    5240    5389    5391    5540
        0   40101   10101   20101   30101
 
     5391    5241    5390    5392    5541
        0   40101   10101   20101   30101
 
     5392    5242    5391    5542
        0   40101   10101   30101
 


 


 


 


 


 


 


 


 


 


 


 


 


 


 


 


 


 


 


 


 


 


 


 


 


 


 


 


 


 


 


 


 


 


 


 


 


 


 


 


 


 


 


 


 


 


 


 


 


 


 


 


 


 


 


 


 


 


 


 


 


 


 


 


 


 


 


 


 


 


 


 


 


 


 


 


 


 


 


 


 


 


 


 


 


 


 


 


 


 


 


 


 


 


 


 


 


 


 


 


 


 


 


 


 


 


 


 


 


 


 


 
     5504    5354    5505
        0   40101   20101
 
     5505    5355    5504    5506    5655
        0   40101   10101   20101   30101
 
     5506    5356    5505    5507    5656
        0   40101   10101   20101   30101
 
     5507    5357    5506    5508    5657
        0   40101   10101   20101   30101
 
     5508    5358    5507    5509    5658
        0   40101   10101   20101   30101
 
     5509    5359    5508    5510    5659
        0   40101   10101   20101   30101
 
     5510    5360    5509    5511    5660
        0   40101   10101   20101   30101
 
     5511    5361    5510    5512    5661
        0   40101   10101   20101   30101
 
     5512    5362    5511    5513    5662
        0   40101   10101   20101   30101
 
     5513    5363    5512    5514    5663
        0   40101   10101   20101   30101
 
     5514    5364    5513    5515    5664
        0   40101   10101   20101   30101
 
     5515    5365    5514    5516    5665
        0   40101   10101   20101   30101
 
     5516    5366    5515    5517    5666
        0   40101   10101   20101   30101
 
     5517    5367    5516    5518    5667
        0   40101   10101   20101   30101
 
     5518    5368    5517    5519    5668
        0   40101   10101   20101   30101
 
     5519    5369    5518    5520    5669
        0   40101   10101   20101   30101
 
     5520    5370    5519    5521    5670
        0   40101   10101   20101   30101
 
     5521    5371    5520    5522    5671
        0   40101   10101   20101   30101
 
     5522    5372    5521    5523    5672
        0   40101   10101   20101   30101
 
     5523    5373    5522    5524    5673
        0   40101   10101   20101   30101
 
     5524    5374    5523    5525    5674
        0   40101   10101   20101   30101
 
     5525    5375    5524    5526    5675
        0   40101   10101   20101   30101
 
     5526    5376    5525    5527    5676
        0   40101   10101   20101   30101
 
     5527    5377    5526    5528    5677
        0   40101   10101   20101   30101
 
     5528    5378    5527    5529    5678
        0   40101   10101   20101   30101
 
     5529    5379    5528    5530    5679
        0   40101   10101   20101   30101
 
     5530    5380    5529    5531    5680
        0   40101   10101   20101   30101
 
     5531    5381    5530    5532    5681
        0   40101   10101   20101   30101
 
     5532    5382    5531    5533    5682
        0   40101   10101   20101   30101
 
     5533    5383    5532    5534    5683
        0   40101   10101   20101   30101
 
     5534    5384    5533    5535    5684
        0   40101   10101   20101   30101
 
     5535    5385    5534    5536    5685
        0   40101   10101   20101   30101
 
     5536    5386    5535    5537    5686
        0   40101   10101   20101   30101
 
     5537    5387    5536    5538    5687
        0   40101   10101   20101   30101
 
     5538    5388    5537    5539    5688
        0   40101   10101   20101   30101
 
     5539    5389    5538    5540    5689
        0   40101   10101   20101   30101
 
     5540    5390    5539    5541    5690
        0   40101   10101   20101   30101
 
     5541    5391    5540    5542    5691
        0   40101   10101   20101   30101
 
     5542    5392    5541    5692
        0   40101   10101   30101
 


 


 


 


 


 


 


 


 


 


 


 


 


 


 


 


 


 


 


 


 


 


 


 


 


 


 


 


 


 


 


 


 


 


 


 


 


 


 


 


 


 


 


 


 


 


 


 


 


 


 


 


 


 


 


 


 


 


 


 


 


 


 


 


 


 


 


 


 


 


 


 


 


 


 


 


 


 


 


 


 


 


 


 


 


 


 


 


 


 


 


 


 


 


 


 


 


 


 


 


 


 


 


 


 


 


 


 


 


 


 


 


 
     5655    5505    5656    5805
        0   40101   20101   30101
 
     5656    5506    5655    5657    5806
        0   40101   10101   20101   30101
 
     5657    5507    5656    5658    5807
        0   40101   10101   20101   30101
 
     5658    5508    5657    5659    5808
        0   40101   10101   20101   30101
 
     5659    5509    5658    5660    5809
        0   40101   10101   20101   30101
 
     5660    5510    5659    5661    5810
        0   40101   10101   20101   30101
 
     5661    5511    5660    5662    5811
        0   40101   10101   20101   30101
 
     5662    5512    5661    5663    5812
        0   40101   10101   20101   30101
 
     5663    5513    5662    5664    5813
        0   40101   10101   20101   30101
 
     5664    5514    5663    5665    5814
        0   40101   10101   20101   30101
 
     5665    5515    5664    5666    5815
        0   40101   10101   20101   30101
 
     5666    5516    5665    5667    5816
        0   40101   10101   20101   30101
 
     5667    5517    5666    5668    5817
        0   40101   10101   20101   30101
 
     5668    5518    5667    5669    5818
        0   40101   10101   20101   30101
 
     5669    5519    5668    5670    5819
        0   40101   10101   20101   30101
 
     5670    5520    5669    5671    5820
        0   40101   10101   20101   30101
 
     5671    5521    5670    5672    5821
        0   40101   10101   20101   30101
 
     5672    5522    5671    5673    5822
        0   40101   10101   20101   30101
 
     5673    5523    5672    5674    5823
        0   40101   10101   20101   30101
 
     5674    5524    5673    5675    5824
        0   40101   10101   20101   30101
 
     5675    5525    5674    5676    5825
        0   40101   10101   20101   30101
 
     5676    5526    5675    5677    5826
        0   40101   10101   20101   30101
 
     5677    5527    5676    5678    5827
        0   40101   10101   20101   30101
 
     5678    5528    5677    5679    5828
        0   40101   10101   20101   30101
 
     5679    5529    5678    5680    5829
        0   40101   10101   20101   30101
 
     5680    5530    5679    5681    5830
        0   40101   10101   20101   30101
 
     5681    5531    5680    5682    5831
        0   40101   10101   20101   30101
 
     5682    5532    5681    5683    5832
        0   40101   10101   20101   30101
 
     5683    5533    5682    5684    5833
        0   40101   10101   20101   30101
 
     5684    5534    5683    5685    5834
        0   40101   10101   20101   30101
 
     5685    5535    5684    5686    5835
        0   40101   10101   20101   30101
 
     5686    5536    5685    5687    5836
        0   40101   10101   20101   30101
 
     5687    5537    5686    5688    5837
        0   40101   10101   20101   30101
 
[...]
        0   40101   10101   20101   30101
 
    20016   19866   20015   20017   20166
        0   40101   10101   20101   30101
 
    20017   19867   20016   20018   20167
        0   40101   10101   20101   30101
 
    20018   19868   20017   20019   20168
        0   40101   10101   20101   30101
 
    20019   19869   20018   20020   20169
        0   40101   10101   20101   30101
 
    20020   19870   20019   20021   20170
        0   40101   10101   20101   30101
 
    20021   19871   20020   20022   20171
        0   40101   10101   20101   30101
 
    20022   19872   20021   20023   20172
        0   40101   10101   20101   30101
 
    20023   19873   20022   20024   20173
        0   40101   10101   20101   30101
 
    20024   19874   20023   20025   20174
        0   40101   10101   20101   30101
 
    20025   19875   20024   20026   20175
        0   40101   10101   20101   30101
 
    20026   19876   20025   20027   20176
        0   40101   10101   20101   30101
 
    20027   19877   20026   20028   20177
        0   40101   10101   20101   30101
 
    20028   19878   20027   20029   20178
        0   40101   10101   20101   30101
 
    20029   19879   20028   20030   20179
        0   40101   10101   20101   30101
 
    20030   19880   20029   20031   20180
        0   40101   10101   20101   30101
 
    20031   19881   20030   20181
        0   40101   10101   30101
 


 


 


 


 


 


 


 


 


 


 


 


 


 


 


 


 


 


 


 


 


 


 


 


 


 


 


 


 


 


 


 


 


 


 


 


 


 


 


 


 


 


 


 


 


 


 


 


 


 


 


 


 


 


 


 


 


 


 


 


 


 


 


 


 


 


 


 


 


 


 


 


 


 


 


 


 


 


 


 


 


 


 


 


 


 


 


 


 


 


 


 


 


 


 


 


 


 


 


 


 


 


 


 


 


 


 


 


 


 


 


 


 


 


 


 


 


 


 


 


 


 


 


 


 


 
    20157   20007   20158
        0   40101   20101
 
    20158   20008   20157   20308
        0   40101   10101   30101
 


 


 
    20161   20011   20162
        0   40101   20101
 
    20162   20012   20161   20163
        0   40101   10101   20101
 
    20163   20013   20162   20164   20313
        0   40101   10101   20101   30101
 
    20164   20014   20163   20165   20314
        0   40101   10101   20101   30101
 
    20165   20015   20164   20166   20315
        0   40101   10101   20101   30101
 
    20166   20016   20165   20167   20316
        0   40101   10101   20101   30101
 
    20167   20017   20166   20168   20317
        0   40101   10101   20101   30101
 
    20168   20018   20167   20169   20318
        0   40101   10101   20101   30101
 
    20169   20019   20168   20170   20319
        0   40101   10101   20101   30101
 
    20170   20020   20169   20171   20320
        0   40101   10101   20101   30101
 
    20171   20021   20170   20172   20321
        0   40101   10101   20101   30101
 
    20172   20022   20171   20173   20322
        0   40101   10101   20101   30101
 
    20173   20023   20172   20174   20323
        0   40101   10101   20101   30101
 
    20174   20024   20173   20175   20324
        0   40101   10101   20101   30101
 
    20175   20025   20174   20176   20325
        0   40101   10101   20101   30101
 
    20176   20026   20175   20177   20326
        0   40101   10101   20101   30101
 
    20177   20027   20176   20178   20327
        0   40101   10101   20101   30101
 
    20178   20028   20177   20179   20328
        0   40101   10101   20101   30101
 
    20179   20029   20178   20180   20329
        0   40101   10101   20101   30101
 
    20180   20030   20179   20181   20330
        0   40101   10101   20101   30101
 
    20181   20031   20180
        0   40101   10101
 


 


 


 


 


 


 


 


 


 


 


 


 


 


 


 


 


 


 


 


 


 


 


 


 


 


 


 


 


 


 


 


 


 


 


 


 


 


 


 


 


 


 


 


 


 


 


 


 


 


 


 


 


 


 


 


 


 


 


 


 


 


 


 


 


 


 


 


 


 


 


 


 


 


 


 


 


 


 


 


 


 


 


 


 


 


 


 


 


 


 


 


 


 


 


 


 


 


 


 


 


 


 


 


 


 


 


 


 


 


 


 


 


 


 


 


 


 


 


 


 


 


 


 


 


 


 
    20308   20158
        0   40101
 


 


 


 


 
    20313   20163   20314   20463
        0   40101   20101   30101
 
    20314   20164   20313   20315   20464
        0   40101   10101   20101   30101
 
    20315   20165   20314   20316   20465
        0   40101   10101   20101   30101
 
    20316   20166   20315   20317   20466
        0   40101   10101   20101   30101
 
    20317   20167   20316   20318   20467
        0   40101   10101   20101   30101
 
    20318   20168   20317   20319
        0   40101   10101   20101
 
    20319   20169   20318   20320
        0   40101   10101   20101
 
    20320   20170   20319   20321   20470
        0   40101   10101   20101   30101
 
    20321   20171   20320   20322   20471
        0   40101   10101   20101   30101
 
    20322   20172   20321   20323   20472
        0   40101   10101   20101   30101
 
    20323   20173   20322   20324   20473
        0   40101   10101   20101   30101
 
    20324   20174   20323   20325   20474
        0   40101   10101   20101   30101
 
    20325   20175   20324   20326   20475
        0   40101   10101   20101   30101
 
    20326   20176   20325   20327   20476
        0   40101   10101   20101   30101
 
    20327   20177   20326   20328   20477
        0   40101   10101   20101   30101
 
    20328   20178   20327   20329   20478
        0   40101   10101   20101   30101
 
    20329   20179   20328   20330   20479
        0   40101   10101   20101   30101
 
    20330   20180   20329
        0   40101   10101
 


 


 


 


 


 


 


 


 


 


 


 


 


 


 


 


 


 


 


 


 


 


 


 


 


 


 


 


 


 


 


 


 


 


 


 


 


 


 


 


 


 


 


 


 


 


 


 


 


 


 


 


 


 


 


 


 


 


 


 


 


 


 


 


 


 


 


 


 


 


 


 


 


 


 


 


 


 


 


 


 


 


 


 


 


 


 


 


 


 


 


 


 


 


 


 


 


 


 


 


 


 


 


 


 


 


 


 


 


 


 


 


 


 


 


 


 


 


 


 


 


 


 


 


 


 


 


 


 


 


 


 
    20462   20463   20612
        0   20101   30101
 
    20463   20313   20462   20464   20613
        0   40101   10101   20101   30101
 
    20464   20314   20463   20465   20614
        0   40101   10101   20101   30101
 
    20465   20315   20464   20466   20615
        0   40101   10101   20101   30101
 
    20466   20316   20465   20467   20616
        0   40101   10101   20101   30101
 
    20467   20317   20466   20617
        0   40101   10101   30101
 


 


 
    20470   20320   20471   20620
        0   40101   20101   30101
 
    20471   20321   20470   20472   20621
        0   40101   10101   20101   30101
 
    20472   20322   20471   20473   20622
        0   40101   10101   20101   30101
 
    20473   20323   20472   20474   20623
        0   40101   10101   20101   30101
 
    20474   20324   20473   20475   20624
        0   40101   10101   20101   30101
 
    20475   20325   20474   20476   20625
        0   40101   10101   20101   30101
 
    20476   20326   20475   20477   20626
        0   40101   10101   20101   30101
 
    20477   20327   20476   20478   20627
        0   40101   10101   20101   30101
 
    20478   20328   20477   20479   20628
        0   40101   10101   20101   30101
 
    20479   20329   20478   20629
        0   40101   10101   30101
 


 


 


 


 


 


 


 


 


 


 


 


 


 


 


 


 


 


 


 


 


 


 


 


 


 


 


 


 


 


 


 


 


 


 


 


 


 


 


 


 


 


 


 


 


 


 


 


 


 


 


 


 


 


 


 


 


 


 


 


 


 


 


 


 


 


 


 


 


 


 


 


 


 


 


 


 


 


 


 


 


 


 


 


 


 


 


 


 


 


 


 


 


 


 


 


 


 


 


 


 


 


 


 


 


 


 


 


 


 


 


 


 


 


 


 


 


 


 


 


 


 


 


 


 


 


 


 


 


 


 


 


 
    20612   20462   20613
        0   40101   20101
 
    20613   20463   20612   20614
        0   40101   10101   20101
 
    20614   20464   20613   20615   20764
        0   40101   10101   20101   30101
 
    20615   20465   20614   20616   20765
        0   40101   10101   20101   30101
 
    20616   20466   20615   20617   20766
        0   40101   10101   20101   30101
 
    20617   20467   20616   20767
        0   40101   10101   30101
 


 


 
    20620   20470   20621   20770
        0   40101   20101   30101
 
    20621   20471   20620   20622   20771
        0   40101   10101   20101   30101
 
    20622   20472   20621   20623   20772
        0   40101   10101   20101   30101
 
    20623   20473   20622   20624   20773
        0   40101   10101   20101   30101
 
    20624   20474   20623   20625   20774
        0   40101   10101   20101   30101
 
    20625   20475   20624   20626   20775
        0   40101   10101   20101   30101
 
    20626   20476   20625   20627   20776
        0   40101   10101   20101   30101
 
    20627   20477   20626   20628   20777
        0   40101   10101   20101   30101
 
    20628   20478   20627   20629   20778
        0   40101   10101   20101   30101
 
    20629   20479   20628
        0   40101   10101
 


 


 


 


 


 


 


 


 


 


 


 


 


 


 


 


 


 


 


 


 


 


 


 


 


 


 


 


 


 


 


 


 


 


 


 


 


 


 


 


 


 


 


 


 


 


 


 


 


 


 


 


 


 


 


 


 


 


 


 


 


 


 


 


 


 


 


 


 


 


 


 


 


 


 


 


 


 


 


 


 


 


 


 


 


 


 


 


 


 


 


 


 


 


 


 


 


 


 


 


 


 


 


 


 


 


 


 


 


 


 


 


 


 


 


 


 


 


 


 


 


 


 


 


 


 


 


 


 


 


 


 


 


 


 
    20764   20614   20765
        0   40101   20101
 
    20765   20615   20764   20766   20915
        0   40101   10101   20101   30101
 
    20766   20616   20765   20767   20916
        0   40101   10101   20101   30101
 
    20767   20617   20766   20917
        0   40101   10101   30101
 


 


 
    20770   20620   20771   20920
        0   40101   20101   30101
 
    20771   20621   20770   20772   20921
        0   40101   10101   20101   30101
 
    20772   20622   20771   20773   20922
        0   40101   10101   20101   30101
 
    20773   20623   20772   20774   20923
        0   40101   10101   20101   30101
 
    20774   20624   20773   20775   20924
        0   40101   10101   20101   30101
 
    20775   20625   20774   20776   20925
        0   40101   10101   20101   30101
 
    20776   20626   20775   20777   20926
        0   40101   10101   20101   30101
 
    20777   20627   20776   20778
        0   40101   10101   20101
 
    20778   20628   20777
        0   40101   10101
 


 


 


 


 


 


 


 


 


 


 


 


 


 


 


 


 


 


 


 


 


 


 


 


 


 


 


 


 


 


 


 


 


 


 


 


 


 


 


 


 


 


 


 


 


 


 


 


 


 


 


 


 


 


 


 


 


 


 


 


 


 


 


 


 


 


 


 


 


 


 


 


 


 


 


 


 


 


 


 


 


 


 


 


 


 


 


 


 


 


 


 


 


 


 


 


 


 


 


 


 


 


 


 


 


 


 


 


 


 


 


 


 


 


 


 


 


 


 


 


 


 


 


 


 


 


 


 


 


 


 


 


 


 


 


 


 
    20915   20765   20916
        0   40101   20101
 
    20916   20766   20915   20917   21066
        0   40101   10101   20101   30101
 
    20917   20767   20916   21067
        0   40101   10101   30101
 


 


 
    20920   20770   20921   21070
        0   40101   20101   30101
 
    20921   20771   20920   20922   21071
        0   40101   10101   20101   30101
 
    20922   20772   20921   20923   21072
        0   40101   10101   20101   30101
 
    20923   20773   20922   20924   21073
        0   40101   10101   20101   30101
 
    20924   20774   20923   20925   21074
        0   40101   10101   20101   30101
 
    20925   20775   20924   20926   21075
        0   40101   10101   20101   30101
 
    20926   20776   20925
        0   40101   10101
 


 


 


 


 


 


 


 


 


 


 


 


 


 


 


 


 


 


 


 


 


 


 


 


 


 


 


 


 


 


 


 


 


 


 


 


 


 


 


 


 


 


 


 


 


 


 


 


 


 


 


 


 


 


 


 


 


 


 


 


 


 


 


 


 


 


 


 


 


 


 


 


 


 


 


 


 


 


 


 


 


 


 


 


 


 


 


 


 


 


 


 


 


 


 


 


 


 


 


 


 


 


 


 


 


 


 


 


 


 


 


 


 


 


 


 


 


 


 


 


 


 


 


 


 


 


 


 


 


 


 


 


 


 


 


 


 


 


 


 
    21066   20916   21067
        0   40101   20101
 
    21067   20917   21066
        0   40101   10101
 


 


 
    21070   20920   21071   21220
        0   40101   20101   30101
 
    21071   20921   21070   21072   21221
        0   40101   10101   20101   30101
 
    21072   20922   21071   21073
        0   40101   10101   20101
 
    21073   20923   21072   21074
        0   40101   10101   20101
 
    21074   20924   21073   21075
        0   40101   10101   20101
 
    21075   20925   21074
        0   40101   10101
 


 


 


 


 


 


 


 


 


 


 


 


 


 


 


 


 


 


 


 


 


 


 


 


 


 


 


 


 


 


 


 


 


 


 


 


 


 


 


 


 


 


 


 


 


 


 


 


 


 


 


 


 


 


 


 


 


 


 


 


 


 


 


 


 


 


 


 


 


 


 


 


 


 


 


 


 


 


 


 


 


 


 


 


 


 


 


 


 


 


 


 


 


 


 


 


 


 


 


 


 


 


 


 


 


 


 


 


 


 


 


 


 


 


 


 


 


 


 


 


 


 


 


 


 


 


 


 


 


 


 


 


 


 


 


 


 


 


 


 


 


 


 


 


 
    21220   21070   21221
        0   40101   20101
 
    21221   21071   21220
        0   40101   10101
 


 


 


 


 


 


 


 


 


 


 


 


 


 


 


 


 


 


 


 


 


 


 


 


 


 


 


 


 


 


 


 


 


 


 


 


 


 


 


 


 


 


 


 


 


 


 


 


 


 


 


 


 


 


 


 


 


 


 


 


 


 


 


 


 


 


 


 


 


 


 


 


 


 


 


 


 


 


 


 


 


 


 


 


 


 


 


 


 


 


 


 


 


 


 


 


 


 


 


 


 


 


 


 


 


 


 


 


 


 


 


 


 


 


 


 


 


 


 


 


 


 


 


 


 


 


 


 


 


 


 


 


 


 


 


 


 


 


 


 


 


 


 


 


 


 


 


 


 


 


 


 


 


 


 


 


 


 


 


 


 


 


 


 


 


 


 


 


 


 


 


 


 


 


 


 


 


 


 


 


 


 


 


 


 


 


 


 


 


 


 


 


 


 


 


 


 


 


 


 


 


 


 


 


 


 


 


 


 


 


 


 


 


 


 


 


 


 


 


 


 


 


 


 


 


 


 


 


 


 


 


 


 


 


 


 


 


 


 


 


 


 


 


 


 


 


 


 


 


 


 


 


 


 


 


 


 


 


 


 


 


 


 


 


 


 


 


 


 


 


 


 


 


 


 


 


 


 


 


 


 


 


 


 


 


 


 


 


 


 


 


 


 


 


 


 


 


 


 


 


 


 


 


 


 


 


 


 


 


 


 


 


 


 


 


 


 


 


 


 


 


 


 


 


 


 


 


 


 


 


 


 


 


 


 


 


 


 


 


 


 


 


 


 


 


 


 


 


 


 


 


 


 


 


 


 


 


 


 


 


 


 


 


 


 


 


 


 


 


 


 


 


 


 


 


 


 


 


 


 


 


 


 


 


 


 


 


 


 


 


 


 


 


 


 


 


 


 


 


 


 


 


 


 


 


 


 


 


 


 


 


 


 


 


 


 


 


 


 


 


 


 


 


 


 


 


 


 


 


 


 


 


 


 


 


 


 


 


 


 


 


 


 


 


 


 


 


 


 


 


 


 


 


 


 


 


 


 


 


 


 


 


 


 


 


 


 


 


 


 


 


 


 


 


 


 


 


 


 


 


 


 


 


 


 


 


 


 


 


 


 


 


 


 


 


 


 


 


 


 


 


 


 


 


 


 


 


 


 


 


 


 


 


 


 


 


 


 


 


 


 


 


 


 


 


 


 


 


 


 


 


 


 


 


 


 


 


 


 


 


 


 


 


 


 


 


 


 


 


 


 


 


 


 


 


 


 


 


 


 


 


 


 


 


 


 


 


 


 


 


 


 


 


 


 


 


 


 


 


 


 


 


 


 


 


 


 


 


 


 


 


 


 


 


 


 


 


 


 


 


 


 


 


 


 


 


 


 


 


 


 


 


 


 


 


 


 


 


 


 


 


 


 


 


 


 


 


 


 


 


 


 


 


 


 


 


 


 


 


 


 


 


 


 


 


 


 


 


 


 


 


 


 


 


 


 


 


 


 


 


 


 


 


 


 


 


 


 


 


 


 


 


 


 


 


 


 


 


 


 


 


 


 


 


 


 


 


 


 


 


 


 


 


 


 


 


 


 


 


 


 


 


 


 


 


 


 


 


 


 


 


 


 


 


 


 


 


 


 


 


 


 


 


 


 


 


 


 


 


 


 


 


 


 


 


 


 


 


 


 


 


 


 


 


 


 


 


 


 


 


 


 


 


 


 


 


 


 


 


 


 


 


 


 


 


 


 


 


 


 


 


 


 


 


 


 


 


 


 


 


 


 


 


 


 


 


 


 


 


 


 


 


 


 


 


 


 


 


 


 


 


 


 


 


 


 


 


 


 


 


 


 


 


 


 


 


 


 


 


 


 


 


 


 


 


 


 


 


 


 


 


 


 


 


 


 


 


 


 


 


 


 


 


 


 


 


 


 


 


 


 


 


 


 


 


 


 


 


 


 


 


 


 


 


 


 


 


 


 


 


 


 


 


 


 


 


 


 


 


 


 


 


 


 


 


 


 


 


 


 


 


 


 


 


 


 


 


 


 


 


 


 


 


 


 


 


 


 


 


 


 


 


 


 


 


 


 


 


 


 


 


 


 


 


 


 


 


 


 


 


 


 


 


 


 


 


 


 


 


 


 


 


 


 


 


 


 


 


 


 


 


 


 


 


 


 


 


 


 


 


 


 


 


 


 


 


 


 


 


 


 


 


 


 


 


 


 


 


 


 


 


 


 


 


 


 


 


 


 


 


 


 


 


 


 


 


 


 


 


 


 


 


 


 


 


 


 


 


 


 


 


 


 


 


 


 


 


 


 


 


 


 


 


 


 


 


 


 


 


 


 


 


 


 


 


 


 


 


 


 


 


 


 


 


 


 


 


 


 


 


 


 


 


 


 


 


 


 


 


 


 


 


 


 


 


 


 


 


 


 


 


 


 


 


 


 


 


 


 


 


 


 


 


 


 


 


 


 


 


 


 


 


 


 


 


 


 


 


 


 


 


 


 


 


 


 


 


 


 


 


 


 


 


 


 


 


 


 


 


 


 


 


 


 


 


 


 


 


 


 


 


 


 


 


 


 


 


 


 


 


 


 


 


 


 


 


 


 


 


 


 


 


 


 


 


 


 


 


 


 


 


 


 


 


 


 


 


 


 


 


 


 


 


 


 


 


 


 


 


 


 


 


 


 


 


 


 


 


 


 


 


 


 


 


 


 


 


 


 


 


 


 


 


 


 


 


 


 


 


 


 


 


 


 


 


 


 


 


 


 


 


 


 


 


 


 


 


 


 


 


 


 


 


 


 


 


 


 


 


 


 


 


 


 


 


 


 


 


 


 


 


 


 


 


 


 


 


 


 


 


 


 


 


 


 


 


 


 


 


 


 


 


 


 


 


 


 


 


 


 
Allocate budget reader component.
Open budget file in budget reader.
Allocate head reader component.
Open head file in head reader component.
Allocate MODPATH basic data component.
Read MODPATH basic data component.
Read the remainder of the MODPATH simulation data component.
Allocate particle tracking engine component.
Compute range of time steps. Prepare for time step loop                                                                             
Begin TIME_STEP_LOOP
Compute TSMAX                                                                                                                       
Begin TRACKING_INTERVAL_LOOP
Exit TRACKING_INTERVAL_LOOP
Exit TIME_STEP_LOOP
Write endpoint file.
Consolidating pathline segments.
Begin memory deallocation.
Memory deallocation complete.
