                                   MODFLOW 6
                U.S. GEOLOGICAL SURVEY MODULAR HYDROLOGIC MODEL
                          GROUNDWATER FLOW MODEL (GWF)
                            VERSION 6.0.4 03/13/2019

   MODFLOW 6 compiled Mar 21 2019 15:37:31 with IFORT compiler (ver. 19.0.0)

This software has been approved for release by the U.S. Geological 
Survey (USGS). Although the software has been subjected to rigorous 
review, the USGS reserves the right to update the software as needed 
pursuant to further analysis and review. No warranty, expressed or 
implied, is made by the USGS or the U.S. Government as to the 
functionality of the software and related material nor shall the 
fact of release constitute any such warranty. Furthermore, the 
software is released on condition that neither the USGS nor the U.S. 
Government shall be held liable for any damages resulting from its 
authorized or unauthorized use. Also refer to the USGS Water 
Resources Software User Rights Notice for complete use, copyright, 
and distribution information.


MODFLOW was compiled using uniform precision.
Precision of REAL variables: 15


 OPENED dis_test.dis
 FILE TYPE:DIS6                   UNIT 1005   STATUS:OLD                 
 FORMAT:FORMATTED              ACCESS:SEQUENTIAL          
 ACTION:READ                


 OPENED dis_test.ic
 FILE TYPE:IC6                    UNIT 1006   STATUS:OLD                 
 FORMAT:FORMATTED              ACCESS:SEQUENTIAL          
 ACTION:READ                


 OPENED dis_test.npf
 FILE TYPE:NPF6                   UNIT 1007   STATUS:OLD                 
 FORMAT:FORMATTED              ACCESS:SEQUENTIAL          
 ACTION:READ                


 OPENED dis_test.chd
 FILE TYPE:CHD6                   UNIT 1008   STATUS:OLD                 
 FORMAT:FORMATTED              ACCESS:SEQUENTIAL          
 ACTION:READ                


 OPENED dis_test.rcha
 FILE TYPE:RCH6                   UNIT 1009   STATUS:OLD                 
 FORMAT:FORMATTED              ACCESS:SEQUENTIAL          
 ACTION:READ                


 OPENED dis_test.oc
 FILE TYPE:OC6                    UNIT 1010   STATUS:OLD                 
 FORMAT:FORMATTED              ACCESS:SEQUENTIAL          
 ACTION:READ                


 DIS -- STRUCTURED GRID DISCRETIZATION PACKAGE, VERSION 2 : 3/27/2014 - INPUT READ FROM UNIT 1005


 PROCESSING DISCRETIZATION OPTIONS
    XORIGIN SPECIFIED AS     660000.000000000    
    YORIGIN SPECIFIED AS     6150000.00000000    
 END OF DISCRETIZATION OPTIONS
 MODEL LENGTH UNIT IS UNDEFINED
 PROCESSING DISCRETIZATION DIMENSIONS
    NLAY =       1
    NROW =     100
    NCOL =     100
 END OF DISCRETIZATION DIMENSIONS
 PROCESSING GRIDDATA

   MODEL LAYER BOTTOM EL. =  -50.00000    
 END PROCESSING GRIDDATA

 THE SPECIFIED IDOMAIN RESULTS IN A REDUCED NUMBER OF CELLS.
 NUMBER OF USER NODES:   10000
 NUMBER OF NODES IN SOLUTION:    3856



 NPF -- NODE PROPERTY FLOW PACKAGE, VERSION 1, 3/30/2015 INPUT READ FROM UNIT 1007


 PROCESSING NPF OPTIONS
    CELL-BY-CELL FLOW INFORMATION WILL BE SAVED TO BINARY FILE WHENEVER ICBCFL IS NOT ZERO.
 END OF NPF OPTIONS

 RCH   -- RCH PACKAGE, VERSION 8, 2/22/2014 INPUT READ FROM UNIT 1009

 PROCESSING RCH OPTIONS
    RECHARGE INPUT WILL BE READ AS ARRAY(S).
 END OF RCH OPTIONS

 CHD   -- CHD PACKAGE, VERSION 8, 2/22/2014 INPUT READ FROM UNIT 1008

 PROCESSING CHD OPTIONS
    FLOWS WILL BE SAVED TO BUDGET FILE SPECIFIED IN OUTPUT CONTROL
 END OF CHD OPTIONS

 PROCESSING CHD DIMENSIONS
    MAXBOUND =      88
 END OF CHD DIMENSIONS

 IC -- INITIAL CONDITIONS PACKAGE, VERSION 8, 3/28/2015 INPUT READ FROM UNIT 1006
 PROCESSING GRIDDATA

     INITIAL HEAD =   1.000000    
 END PROCESSING GRIDDATA
 PROCESSING GRIDDATA

                ICELLTYPE = 0

                        K =  0.1000000E-03
 K33 not provided.  Assuming K33 = K.
 K22 not provided.  Assuming K22 = K.
 END PROCESSING GRIDDATA
    BINARY GRID INFORMATION WILL BE WRITTEN TO:
      UNIT NUMBER: 1012
      FILE NAME: M:\GitHub\TM_Ludovic_Schorpp\codes_tests\Modeles2D\DIS_test\workingDis\dis_test.dis.grb

 OPENED M:\GitHub\TM_Ludovic_Schorpp\codes_tests\Modeles2D\DIS_test\workingDis\dis_test.dis.grb
 FILE TYPE:DATA(BINARY)   UNIT 1012   STATUS:REPLACE             
 FORMAT:UNFORMATTED            ACCESS:STREAM              
 ACTION:READWRITE           

      THE LAST TIME STEP WILL BE PRINTED
      THE LAST TIME STEP WILL BE PRINTED
 PROCESSING OC OPTIONS
    BUDGET INFORMATION WILL BE WRITTEN TO:
      UNIT NUMBER: 1013
      FILE NAME: dis_test.cbc

 OPENED dis_test.cbc
 FILE TYPE:DATA(BINARY)   UNIT 1013   STATUS:REPLACE             
 FORMAT:UNFORMATTED            ACCESS:STREAM              
 ACTION:READWRITE           

    HEAD INFORMATION WILL BE WRITTEN TO:
      UNIT NUMBER: 1014
      FILE NAME: dis_test.hds

 OPENED dis_test.hds
 FILE TYPE:DATA(BINARY)   UNIT 1014   STATUS:REPLACE             
 FORMAT:UNFORMATTED            ACCESS:STREAM              
 ACTION:READWRITE           

 END OF OC OPTIONS

 BEGIN READING OUTPUT CONTROL FOR STRESS PERIOD 1
      THE LAST TIME STEP WILL BE SAVED
      THE LAST TIME STEP WILL BE SAVED
      THE LAST TIME STEP WILL BE PRINTED
      THE LAST TIME STEP WILL BE PRINTED

 END READING OUTPUT CONTROL FOR STRESS PERIOD 1

                 RECHARGE =  0.3170979E-08
 UBDSV1 SAVING     FLOW-JA-FACE ON UNIT   1013 AT TIME STEP      1, STRESS PERIOD      1
 UBDSV06 SAVING              CHD IN MODEL DIS_TEST         PACKAGE DIS_TEST        CONNECTED TO MODEL DIS_TEST         PACKAGE CHD              ON UNIT   1013 AT TIME STEP      1, STRESS PERIOD      1
1
  HEAD IN LAYER   1 AT END OF TIME STEP   1 IN STRESS PERIOD    1
  ---------------------------------------------------------------------------

            1           2           3           4           5           6           7           8           9          10
           11          12          13          14          15          16          17          18          19          20
           21          22          23          24          25          26          27          28          29          30
           31          32          33          34          35          36          37          38          39          40
           41          42          43          44          45          46          47          48          49          50
           51          52          53          54          55          56          57          58          59          60
           61          62          63          64          65          66          67          68          69          70
           71          72          73          74          75          76          77          78          79          80
           81          82          83          84          85          86          87          88          89          90
           91          92          93          94          95          96          97          98          99         100
 ........................................................................................................................
   1   1.0000E+30  1.0000E+30  1.0000E+30  1.0000E+30  1.0000E+30  1.0000E+30  1.0000E+30  1.0000E+30  1.0000E+30  1.0000E+30
       1.0000E+30  1.0000E+30  1.0000E+30  1.0000E+30  1.0000E+30  1.0000E+30  1.0000E+30  1.0000E+30  1.0000E+30  1.0000E+30
       1.0000E+30  1.0000E+30  1.0000E+30  1.0000E+30  1.0000E+30  1.0000E+30  1.0000E+30  1.0000E+30  1.0000E+30  1.0000E+30
       1.0000E+30  1.0000E+30  1.0000E+30  1.0000E+30  1.0000E+30  1.0000E+30  1.0000E+30  1.0000E+30  1.0000E+30  1.0000E+30
       1.0000E+30  1.0000E+30  1.0000E+30  1.0000E+30  1.0000E+30  1.0000E+30  1.0000E+30  1.0000E+30  1.0000E+30  1.0000E+30
       1.0000E+30  1.0000E+30  1.0000E+30  1.0000E+30  1.0000E+30  1.0000E+30  1.0000E+30  1.0000E+30  1.0000E+30  1.0000E+30
       1.0000E+30  1.0000E+30  1.0000E+30  1.0000E+30  1.0000E+30  1.0000E+30  1.0000E+30  1.0000E+30  1.0000E+30  1.0000E+30
       1.0000E+30  1.0000E+30  1.0000E+30  1.0000E+30  1.0000E+30  1.0000E+30  1.0000E+30  1.0000E+30  1.0000E+30  1.0000E+30
       1.0000E+30  1.0000E+30  1.0000E+30  1.0000E+30  1.0000E+30  1.0000E+30  1.0000E+30  1.0000E+30  1.0000E+30  1.0000E+30
       1.0000E+30  1.0000E+30  1.0000E+30  1.0000E+30  1.0000E+30  1.0000E+30  1.0000E+30  1.0000E+30  1.0000E+30  1.0000E+30
   2   1.0000E+30  1.0000E+30  1.0000E+30  1.0000E+30  1.0000E+30  1.0000E+30  1.0000E+30  1.0000E+30  1.0000E+30  1.0000E+30
       1.0000E+30  1.0000E+30  1.0000E+30  1.0000E+30  1.0000E+30  1.0000E+30  1.0000E+30  1.0000E+30  1.0000E+30  1.0000E+30
       1.0000E+30  1.0000E+30  1.0000E+30  1.0000E+30  1.0000E+30  1.0000E+30  1.0000E+30  1.0000E+30  1.0000E+30  1.0000E+30
       1.0000E+30  1.0000E+30  1.0000E+30  1.0000E+30  1.0000E+30  1.0000E+30  1.0000E+30  1.0000E+30  1.0000E+30  1.0000E+30
       1.0000E+30  1.0000E+30  1.0000E+30  1.0000E+30  1.0000E+30  1.0000E+30  1.0000E+30  1.0000E+30  1.0000E+30  1.0000E+30
       1.0000E+30  1.0000E+30  1.0000E+30  1.0000E+30  1.0000E+30  1.0000E+30  1.0000E+30  1.0000E+30  1.0000E+30  1.0000E+30
       1.0000E+30  1.0000E+30  1.0000E+30  1.0000E+30  1.0000E+30  1.0000E+30  1.0000E+30  1.0000E+30  1.0000E+30  1.0000E+30
       1.0000E+30  1.0000E+30  1.0000E+30  1.0000E+30  1.0000E+30  1.0000E+30  1.0000E+30  1.0000E+30  1.0000E+30  1.0000E+30
       1.0000E+30  1.0000E+30  1.0000E+30  1.0000E+30  1.0000E+30  1.0000E+30  1.0000E+30  1.0000E+30  1.0000E+30  1.0000E+30
       1.0000E+30  1.0000E+30  1.0000E+30  1.0000E+30  1.0000E+30  1.0000E+30  1.0000E+30  1.0000E+30  1.0000E+30  1.0000E+30
   3   1.0000E+30  1.0000E+30  1.0000E+30  1.0000E+30  1.0000E+30  1.0000E+30  1.0000E+30  1.0000E+30  1.0000E+30  1.0000E+30
       1.0000E+30  1.0000E+30  1.0000E+30  1.0000E+30  1.0000E+30  1.0000E+30  1.0000E+30  1.0000E+30  1.0000E+30  1.0000E+30
       1.0000E+30  1.0000E+30  1.0000E+30  1.0000E+30  1.0000E+30  1.0000E+30  1.0000E+30  1.0000E+30  1.0000E+30  1.0000E+30
       1.0000E+30  1.0000E+30  1.0000E+30  1.0000E+30  1.0000E+30  1.0000E+30  1.0000E+30  1.0000E+30  1.0000E+30  1.0000E+30
       1.0000E+30  1.0000E+30  1.0000E+30  1.0000E+30  1.0000E+30  1.0000E+30  1.0000E+30  1.0000E+30  1.0000E+30  1.0000E+30
       1.0000E+30  1.0000E+30  1.0000E+30  1.0000E+30  1.0000E+30  1.0000E+30  1.0000E+30  1.0000E+30  1.0000E+30  1.0000E+30
       1.0000E+30  1.0000E+30  1.0000E+30  1.0000E+30  1.0000E+30  1.0000E+30  1.0000E+30  1.0000E+30  1.0000E+30  1.0000E+30
       1.0000E+30  1.0000E+30  1.0000E+30  1.0000E+30  1.0000E+30  1.0000E+30  1.0000E+30  1.0000E+30  1.0000E+30  1.0000E+30
       1.0000E+30  1.0000E+30  1.0000E+30  1.0000E+30  1.0000E+30  1.0000E+30  1.0000E+30  1.0000E+30  1.0000E+30  1.0000E+30
       1.0000E+30   0.000       0.000       0.000       0.000       0.000       0.000      1.0000E+30  1.0000E+30  1.0000E+30
   4   1.0000E+30  1.0000E+30  1.0000E+30  1.0000E+30  1.0000E+30  1.0000E+30  1.0000E+30  1.0000E+30  1.0000E+30  1.0000E+30
       1.0000E+30  1.0000E+30  1.0000E+30  1.0000E+30  1.0000E+30  1.0000E+30  1.0000E+30  1.0000E+30  1.0000E+30  1.0000E+30
       1.0000E+30  1.0000E+30  1.0000E+30  1.0000E+30  1.0000E+30  1.0000E+30  1.0000E+30  1.0000E+30  1.0000E+30  1.0000E+30
       1.0000E+30  1.0000E+30  1.0000E+30  1.0000E+30  1.0000E+30  1.0000E+30  1.0000E+30  1.0000E+30  1.0000E+30  1.0000E+30
       1.0000E+30  1.0000E+30  1.0000E+30  1.0000E+30  1.0000E+30  1.0000E+30  1.0000E+30  1.0000E+30  1.0000E+30  1.0000E+30
       1.0000E+30  1.0000E+30  1.0000E+30  1.0000E+30  1.0000E+30  1.0000E+30  1.0000E+30  1.0000E+30  1.0000E+30  1.0000E+30
       1.0000E+30  1.0000E+30  1.0000E+30  1.0000E+30  1.0000E+30  1.0000E+30  1.0000E+30  1.0000E+30  1.0000E+30  1.0000E+30
       1.0000E+30  1.0000E+30  1.0000E+30  1.0000E+30  1.0000E+30  1.0000E+30  1.0000E+30  1.0000E+30  1.0000E+30  1.0000E+30
       1.0000E+30  1.0000E+30  1.0000E+30  1.0000E+30  1.0000E+30  1.0000E+30  1.0000E+30  1.0000E+30  1.0000E+30  1.0000E+30
       1.0000E+30   0.000      0.2712      0.3592      0.3785      0.3516      0.2489       0.000       0.000      1.0000E+30
   5   1.0000E+30  1.0000E+30  1.0000E+30  1.0000E+30  1.0000E+30  1.0000E+30  1.0000E+30  1.0000E+30  1.0000E+30  1.0000E+30
       1.0000E+30  1.0000E+30  1.0000E+30  1.0000E+30  1.0000E+30  1.0000E+30  1.0000E+30  1.0000E+30  1.0000E+30  1.0000E+30
       1.0000E+30  1.0000E+30  1.0000E+30  1.0000E+30  1.0000E+30  1.0000E+30  1.0000E+30  1.0000E+30  1.0000E+30  1.0000E+30
       1.0000E+30  1.0000E+30  1.0000E+30  1.0000E+30  1.0000E+30  1.0000E+30  1.0000E+30  1.0000E+30  1.0000E+30  1.0000E+30
       1.0000E+30  1.0000E+30  1.0000E+30  1.0000E+30  1.0000E+30  1.0000E+30  1.0000E+30  1.0000E+30  1.0000E+30  1.0000E+30
       1.0000E+30  1.0000E+30  1.0000E+30  1.0000E+30  1.0000E+30  1.0000E+30  1.0000E+30  1.0000E+30  1.0000E+30  1.0000E+30
       1.0000E+30  1.0000E+30  1.0000E+30  1.0000E+30  1.0000E+30  1.0000E+30  1.0000E+30  1.0000E+30  1.0000E+30  1.0000E+30
       1.0000E+30  1.0000E+30  1.0000E+30  1.0000E+30  1.0000E+30  1.0000E+30  1.0000E+30  1.0000E+30  1.0000E+30  1.0000E+30
       1.0000E+30  1.0000E+30  1.0000E+30  1.0000E+30  1.0000E+30  1.0000E+30  1.0000E+30  1.0000E+30  1.0000E+30  1.0000E+30
       1.0000E+30  0.4476      0.6138      0.6835      0.6930      0.6428      0.5301      0.3589      0.2016       0.000    
   6   1.0000E+30  1.0000E+30  1.0000E+30  1.0000E+30  1.0000E+30  1.0000E+30  1.0000E+30  1.0000E+30  1.0000E+30  1.0000E+30
       1.0000E+30  1.0000E+30  1.0000E+30  1.0000E+30  1.0000E+30  1.0000E+30  1.0000E+30  1.0000E+30  1.0000E+30  1.0000E+30
       1.0000E+30  1.0000E+30  1.0000E+30  1.0000E+30  1.0000E+30  1.0000E+30  1.0000E+30  1.0000E+30  1.0000E+30  1.0000E+30
       1.0000E+30  1.0000E+30  1.0000E+30  1.0000E+30  1.0000E+30  1.0000E+30  1.0000E+30  1.0000E+30  1.0000E+30  1.0000E+30
       1.0000E+30  1.0000E+30  1.0000E+30  1.0000E+30  1.0000E+30  1.0000E+30  1.0000E+30  1.0000E+30  1.0000E+30  1.0000E+30
       1.0000E+30  1.0000E+30  1.0000E+30  1.0000E+30  1.0000E+30  1.0000E+30  1.0000E+30  1.0000E+30  1.0000E+30  1.0000E+30
       1.0000E+30  1.0000E+30  1.0000E+30  1.0000E+30  1.0000E+30  1.0000E+30  1.0000E+30  1.0000E+30  1.0000E+30  1.0000E+30
       1.0000E+30  1.0000E+30  1.0000E+30  1.0000E+30  1.0000E+30  1.0000E+30  1.0000E+30  1.0000E+30  1.0000E+30  1.0000E+30
       1.0000E+30  1.0000E+30  1.0000E+30  1.0000E+30  1.0000E+30  1.0000E+30  1.0000E+30  1.0000E+30  1.0000E+30  1.0000E+30
       1.0000E+30  1.0000E+30  0.9515      0.9833      0.9999      0.9364      0.7913      0.5805      0.3214       0.000    
   7   1.0000E+30  1.0000E+30  1.0000E+30  1.0000E+30  1.0000E+30  1.0000E+30  1.0000E+30  1.0000E+30  1.0000E+30  1.0000E+30
       1.0000E+30  1.0000E+30  1.0000E+30  1.0000E+30  1.0000E+30  1.0000E+30  1.0000E+30  1.0000E+30  1.0000E+30  1.0000E+30
       1.0000E+30  1.0000E+30  1.0000E+30  1.0000E+30  1.0000E+30  1.0000E+30  1.0000E+30  1.0000E+30  1.0000E+30  1.0000E+30
       1.0000E+30  1.0000E+30  1.0000E+30  1.0000E+30  1.0000E+30  1.0000E+30  1.0000E+30  1.0000E+30  1.0000E+30  1.0000E+30
       1.0000E+30  1.0000E+30  1.0000E+30  1.0000E+30  1.0000E+30  1.0000E+30  1.0000E+30  1.0000E+30  1.0000E+30  1.0000E+30
       1.0000E+30  1.0000E+30  1.0000E+30  1.0000E+30  1.0000E+30  1.0000E+30  1.0000E+30  1.0000E+30  1.0000E+30  1.0000E+30
       1.0000E+30  1.0000E+30  1.0000E+30  1.0000E+30  1.0000E+30  1.0000E+30  1.0000E+30  1.0000E+30  1.0000E+30  1.0000E+30
       1.0000E+30  1.0000E+30  1.0000E+30  1.0000E+30  1.0000E+30  1.0000E+30  1.0000E+30  1.0000E+30  1.0000E+30  1.0000E+30
       1.0000E+30  1.0000E+30  1.0000E+30  1.0000E+30  1.0000E+30  1.0000E+30  1.0000E+30  1.0000E+30  1.0000E+30  1.0000E+30
       1.0000E+30  1.0000E+30   1.165       1.216       1.356       1.278       1.072      0.7795      0.4168       0.000    
   8   1.0000E+30  1.0000E+30  1.0000E+30  1.0000E+30  1.0000E+30  1.0000E+30  1.0000E+30  1.0000E+30  1.0000E+30  1.0000E+30
       1.0000E+30  1.0000E+30  1.0000E+30  1.0000E+30  1.0000E+30  1.0000E+30  1.0000E+30  1.0000E+30  1.0000E+30  1.0000E+30
       1.0000E+30  1.0000E+30  1.0000E+30  1.0000E+30  1.0000E+30  1.0000E+30  1.0000E+30  1.0000E+30  1.0000E+30  1.0000E+30
       1.0000E+30  1.0000E+30  1.0000E+30  1.0000E+30  1.0000E+30  1.0000E+30  1.0000E+30  1.0000E+30  1.0000E+30  1.0000E+30
       1.0000E+30  1.0000E+30  1.0000E+30  1.0000E+30  1.0000E+30  1.0000E+30  1.0000E+30  1.0000E+30  1.0000E+30  1.0000E+30
       1.0000E+30  1.0000E+30  1.0000E+30  1.0000E+30  1.0000E+30  1.0000E+30  1.0000E+30  1.0000E+30  1.0000E+30  1.0000E+30
       1.0000E+30  1.0000E+30  1.0000E+30  1.0000E+30  1.0000E+30  1.0000E+30  1.0000E+30  1.0000E+30  1.0000E+30  1.0000E+30
       1.0000E+30  1.0000E+30  1.0000E+30  1.0000E+30  1.0000E+30  1.0000E+30  1.0000E+30  1.0000E+30  1.0000E+30  1.0000E+30
       1.0000E+30  1.0000E+30  1.0000E+30  1.0000E+30  1.0000E+30  1.0000E+30  1.0000E+30  1.0000E+30  1.0000E+30  1.0000E+30
       1.0000E+30  1.0000E+30  1.0000E+30  1.0000E+30   1.996       1.810       1.437      0.9782      0.5159       0.000    
   9   1.0000E+30  1.0000E+30  1.0000E+30  1.0000E+30  1.0000E+30  1.0000E+30  1.0000E+30  1.0000E+30  1.0000E+30  1.0000E+30
       1.0000E+30  1.0000E+30  1.0000E+30  1.0000E+30  1.0000E+30  1.0000E+30  1.0000E+30  1.0000E+30  1.0000E+30  1.0000E+30
       1.0000E+30  1.0000E+30  1.0000E+30  1.0000E+30  1.0000E+30  1.0000E+30  1.0000E+30  1.0000E+30  1.0000E+30  1.0000E+30
       1.0000E+30  1.0000E+30  1.0000E+30  1.0000E+30  1.0000E+30  1.0000E+30  1.0000E+30  1.0000E+30  1.0000E+30  1.0000E+30
       1.0000E+30  1.0000E+30  1.0000E+30  1.0000E+30  1.0000E+30  1.0000E+30  1.0000E+30  1.0000E+30  1.0000E+30  1.0000E+30
       1.0000E+30  1.0000E+30  1.0000E+30  1.0000E+30  1.0000E+30  1.0000E+30  1.0000E+30  1.0000E+30  1.0000E+30  1.0000E+30
       1.0000E+30  1.0000E+30  1.0000E+30  1.0000E+30  1.0000E+30  1.0000E+30  1.0000E+30  1.0000E+30  1.0000E+30  1.0000E+30
       1.0000E+30  1.0000E+30  1.0000E+30  1.0000E+30  1.0000E+30  1.0000E+30  1.0000E+30  1.0000E+30  1.0000E+30  1.0000E+30
       1.0000E+30  1.0000E+30  1.0000E+30  1.0000E+30  1.0000E+30  1.0000E+30  1.0000E+30  1.0000E+30  1.0000E+30  1.0000E+30
       1.0000E+30  1.0000E+30  1.0000E+30  1.0000E+30   2.834       2.534       1.963       1.231      0.5106       0.000    
  10   1.0000E+30  1.0000E+30  1.0000E+30  1.0000E+30  1.0000E+30  1.0000E+30  1.0000E+30  1.0000E+30  1.0000E+30  1.0000E+30
       1.0000E+30  1.0000E+30  1.0000E+30  1.0000E+30  1.0000E+30  1.0000E+30  1.0000E+30  1.0000E+30  1.0000E+30  1.0000E+30
       1.0000E+30  1.0000E+30  1.0000E+30  1.0000E+30  1.0000E+30  1.0000E+30  1.0000E+30  1.0000E+30  1.0000E+30  1.0000E+30
       1.0000E+30  1.0000E+30  1.0000E+30  1.0000E+30  1.0000E+30  1.0000E+30  1.0000E+30  1.0000E+30  1.0000E+30  1.0000E+30
       1.0000E+30  1.0000E+30  1.0000E+30  1.0000E+30  1.0000E+30  1.0000E+30  1.0000E+30  1.0000E+30  1.0000E+30  1.0000E+30
       1.0000E+30  1.0000E+30  1.0000E+30  1.0000E+30  1.0000E+30  1.0000E+30  1.0000E+30  1.0000E+30  1.0000E+30  1.0000E+30
       1.0000E+30  1.0000E+30  1.0000E+30  1.0000E+30  1.0000E+30  1.0000E+30  1.0000E+30  1.0000E+30  1.0000E+30  1.0000E+30
       1.0000E+30  1.0000E+30  1.0000E+30  1.0000E+30  1.0000E+30  1.0000E+30  1.0000E+30  1.0000E+30  1.0000E+30  1.0000E+30
       1.0000E+30  1.0000E+30  1.0000E+30  1.0000E+30  1.0000E+30  1.0000E+30  1.0000E+30  1.0000E+30  1.0000E+30  1.0000E+30
        13.19       12.97      1.0000E+30  1.0000E+30   4.115       3.468       2.525       1.363       0.000      1.0000E+30
  11   1.0000E+30  1.0000E+30  1.0000E+30  1.0000E+30  1.0000E+30  1.0000E+30  1.0000E+30  1.0000E+30  1.0000E+30  1.0000E+30
       1.0000E+30  1.0000E+30  1.0000E+30  1.0000E+30  1.0000E+30  1.0000E+30  1.0000E+30  1.0000E+30  1.0000E+30  1.0000E+30
       1.0000E+30  1.0000E+30  1.0000E+30  1.0000E+30  1.0000E+30  1.0000E+30  1.0000E+30  1.0000E+30  1.0000E+30  1.0000E+30
       1.0000E+30  1.0000E+30  1.0000E+30  1.0000E+30  1.0000E+30  1.0000E+30  1.0000E+30  1.0000E+30  1.0000E+30  1.0000E+30
       1.0000E+30  1.0000E+30  1.0000E+30  1.0000E+30  1.0000E+30  1.0000E+30  1.0000E+30  1.0000E+30  1.0000E+30  1.0000E+30
       1.0000E+30  1.0000E+30  1.0000E+30  1.0000E+30  1.0000E+30  1.0000E+30  1.0000E+30  1.0000E+30  1.0000E+30  1.0000E+30
       1.0000E+30  1.0000E+30  1.0000E+30  1.0000E+30  1.0000E+30  1.0000E+30  1.0000E+30  1.0000E+30  1.0000E+30  1.0000E+30
       1.0000E+30  1.0000E+30  1.0000E+30  1.0000E+30  1.0000E+30  1.0000E+30  1.0000E+30  1.0000E+30  1.0000E+30  1.0000E+30
       1.0000E+30  1.0000E+30  1.0000E+30  1.0000E+30  1.0000E+30  1.0000E+30  1.0000E+30  1.0000E+30  1.0000E+30   13.82    
        13.32       12.45       10.88       8.899       6.408       4.706       3.181       1.631       0.000      1.0000E+30
  12   1.0000E+30  1.0000E+30  1.0000E+30  1.0000E+30  1.0000E+30  1.0000E+30  1.0000E+30  1.0000E+30  1.0000E+30  1.0000E+30
       1.0000E+30  1.0000E+30  1.0000E+30  1.0000E+30  1.0000E+30  1.0000E+30  1.0000E+30  1.0000E+30  1.0000E+30  1.0000E+30
       1.0000E+30  1.0000E+30  1.0000E+30  1.0000E+30  1.0000E+30  1.0000E+30  1.0000E+30  1.0000E+30  1.0000E+30  1.0000E+30
       1.0000E+30  1.0000E+30  1.0000E+30  1.0000E+30  1.0000E+30  1.0000E+30  1.0000E+30  1.0000E+30  1.0000E+30  1.0000E+30
       1.0000E+30  1.0000E+30  1.0000E+30  1.0000E+30  1.0000E+30  1.0000E+30  1.0000E+30  1.0000E+30  1.0000E+30  1.0000E+30
       1.0000E+30  1.0000E+30  1.0000E+30  1.0000E+30  1.0000E+30  1.0000E+30  1.0000E+30  1.0000E+30  1.0000E+30  1.0000E+30
       1.0000E+30  1.0000E+30  1.0000E+30  1.0000E+30  1.0000E+30  1.0000E+30  1.0000E+30  1.0000E+30  1.0000E+30  1.0000E+30
       1.0000E+30  1.0000E+30  1.0000E+30  1.0000E+30  1.0000E+30  1.0000E+30  1.0000E+30  1.0000E+30  1.0000E+30  1.0000E+30
       1.0000E+30  1.0000E+30  1.0000E+30  1.0000E+30  1.0000E+30  1.0000E+30  1.0000E+30  1.0000E+30  1.0000E+30   14.37    
        13.82       12.79       11.30       9.468       7.442       5.530       3.692       1.864       0.000      1.0000E+30
  13   1.0000E+30  1.0000E+30  1.0000E+30  1.0000E+30  1.0000E+30  1.0000E+30  1.0000E+30  1.0000E+30  1.0000E+30  1.0000E+30
       1.0000E+30  1.0000E+30  1.0000E+30  1.0000E+30  1.0000E+30  1.0000E+30  1.0000E+30  1.0000E+30  1.0000E+30  1.0000E+30
       1.0000E+30  1.0000E+30  1.0000E+30  1.0000E+30  1.0000E+30  1.0000E+30  1.0000E+30  1.0000E+30  1.0000E+30  1.0000E+30
       1.0000E+30  1.0000E+30  1.0000E+30  1.0000E+30  1.0000E+30  1.0000E+30  1.0000E+30  1.0000E+30  1.0000E+30  1.0000E+30
       1.0000E+30  1.0000E+30  1.0000E+30  1.0000E+30  1.0000E+30  1.0000E+30  1.0000E+30  1.0000E+30  1.0000E+30  1.0000E+30
       1.0000E+30  1.0000E+30  1.0000E+30  1.0000E+30  1.0000E+30  1.0000E+30  1.0000E+30  1.0000E+30  1.0000E+30  1.0000E+30
       1.0000E+30  1.0000E+30  1.0000E+30  1.0000E+30  1.0000E+30  1.0000E+30  1.0000E+30  1.0000E+30  1.0000E+30  1.0000E+30
       1.0000E+30  1.0000E+30  1.0000E+30  1.0000E+30  1.0000E+30  1.0000E+30  1.0000E+30  1.0000E+30  1.0000E+30  1.0000E+30
       1.0000E+30  1.0000E+30  1.0000E+30  1.0000E+30  1.0000E+30  1.0000E+30  1.0000E+30  1.0000E+30  1.0000E+30   15.56    
        14.86       13.63       12.02       10.14       8.113       6.054       4.013       2.006       0.000      1.0000E+30
  14   1.0000E+30  1.0000E+30  1.0000E+30  1.0000E+30  1.0000E+30  1.0000E+30  1.0000E+30  1.0000E+30  1.0000E+30  1.0000E+30
       1.0000E+30  1.0000E+30  1.0000E+30  1.0000E+30  1.0000E+30  1.0000E+30  1.0000E+30  1.0000E+30  1.0000E+30  1.0000E+30
       1.0000E+30  1.0000E+30  1.0000E+30  1.0000E+30  1.0000E+30  1.0000E+30  1.0000E+30  1.0000E+30  1.0000E+30  1.0000E+30
       1.0000E+30  1.0000E+30  1.0000E+30  1.0000E+30  1.0000E+30  1.0000E+30  1.0000E+30  1.0000E+30  1.0000E+30  1.0000E+30
       1.0000E+30  1.0000E+30  1.0000E+30  1.0000E+30  1.0000E+30  1.0000E+30  1.0000E+30  1.0000E+30  1.0000E+30  1.0000E+30
       1.0000E+30  1.0000E+30  1.0000E+30  1.0000E+30  1.0000E+30  1.0000E+30  1.0000E+30  1.0000E+30  1.0000E+30  1.0000E+30
       1.0000E+30  1.0000E+30  1.0000E+30  1.0000E+30  1.0000E+30  1.0000E+30  1.0000E+30  1.0000E+30  1.0000E+30  1.0000E+30
       1.0000E+30  1.0000E+30  1.0000E+30  1.0000E+30  1.0000E+30  1.0000E+30  1.0000E+30  1.0000E+30  1.0000E+30  1.0000E+30
       1.0000E+30  1.0000E+30  1.0000E+30  1.0000E+30  1.0000E+30  1.0000E+30  1.0000E+30  1.0000E+30  1.0000E+30   17.60    
        16.47       14.85       12.95       10.85       8.638       6.372       4.145       2.015       0.000      1.0000E+30
  15   1.0000E+30  1.0000E+30  1.0000E+30  1.0000E+30  1.0000E+30  1.0000E+30  1.0000E+30  1.0000E+30  1.0000E+30  1.0000E+30
       1.0000E+30  1.0000E+30  1.0000E+30  1.0000E+30  1.0000E+30  1.0000E+30  1.0000E+30  1.0000E+30  1.0000E+30  1.0000E+30
       1.0000E+30  1.0000E+30  1.0000E+30  1.0000E+30  1.0000E+30  1.0000E+30  1.0000E+30  1.0000E+30  1.0000E+30  1.0000E+30
       1.0000E+30  1.0000E+30  1.0000E+30  1.0000E+30  1.0000E+30  1.0000E+30  1.0000E+30  1.0000E+30  1.0000E+30  1.0000E+30
       1.0000E+30  1.0000E+30  1.0000E+30  1.0000E+30  1.0000E+30  1.0000E+30  1.0000E+30  1.0000E+30  1.0000E+30  1.0000E+30
       1.0000E+30  1.0000E+30  1.0000E+30  1.0000E+30  1.0000E+30  1.0000E+30  1.0000E+30  1.0000E+30  1.0000E+30  1.0000E+30
       1.0000E+30  1.0000E+30  1.0000E+30  1.0000E+30  1.0000E+30  1.0000E+30  1.0000E+30  1.0000E+30  1.0000E+30  1.0000E+30
       1.0000E+30  1.0000E+30  1.0000E+30  1.0000E+30  1.0000E+30  1.0000E+30  1.0000E+30  1.0000E+30  1.0000E+30  1.0000E+30
       1.0000E+30  1.0000E+30  1.0000E+30  1.0000E+30  1.0000E+30  1.0000E+30  1.0000E+30   26.40       24.45       21.13    
        18.64       16.31       13.97       11.55       9.050       6.521       4.008       1.646       0.000      1.0000E+30
  16   1.0000E+30  1.0000E+30  1.0000E+30  1.0000E+30  1.0000E+30  1.0000E+30  1.0000E+30  1.0000E+30  1.0000E+30  1.0000E+30
       1.0000E+30  1.0000E+30  1.0000E+30  1.0000E+30  1.0000E+30  1.0000E+30  1.0000E+30  1.0000E+30  1.0000E+30  1.0000E+30
       1.0000E+30  1.0000E+30  1.0000E+30  1.0000E+30  1.0000E+30  1.0000E+30  1.0000E+30  1.0000E+30  1.0000E+30  1.0000E+30
       1.0000E+30  1.0000E+30  1.0000E+30  1.0000E+30  1.0000E+30  1.0000E+30  1.0000E+30  1.0000E+30  1.0000E+30  1.0000E+30
       1.0000E+30  1.0000E+30  1.0000E+30  1.0000E+30  1.0000E+30  1.0000E+30  1.0000E+30  1.0000E+30  1.0000E+30  1.0000E+30
       1.0000E+30  1.0000E+30  1.0000E+30  1.0000E+30  1.0000E+30  1.0000E+30  1.0000E+30  1.0000E+30  1.0000E+30  1.0000E+30
       1.0000E+30  1.0000E+30  1.0000E+30  1.0000E+30  1.0000E+30  1.0000E+30  1.0000E+30  1.0000E+30  1.0000E+30  1.0000E+30
       1.0000E+30  1.0000E+30  1.0000E+30  1.0000E+30  1.0000E+30  1.0000E+30  1.0000E+30  1.0000E+30  1.0000E+30  1.0000E+30
       1.0000E+30  1.0000E+30  1.0000E+30  1.0000E+30  1.0000E+30   34.36       32.57       29.17       26.20       23.18    
        20.35       17.62       14.91       12.16       9.362       6.489       3.440       0.000      1.0000E+30  1.0000E+30
  17   1.0000E+30  1.0000E+30  1.0000E+30  1.0000E+30  1.0000E+30  1.0000E+30  1.0000E+30  1.0000E+30  1.0000E+30  1.0000E+30
       1.0000E+30  1.0000E+30  1.0000E+30  1.0000E+30  1.0000E+30  1.0000E+30  1.0000E+30  1.0000E+30  1.0000E+30  1.0000E+30
       1.0000E+30  1.0000E+30  1.0000E+30  1.0000E+30  1.0000E+30  1.0000E+30  1.0000E+30  1.0000E+30  1.0000E+30  1.0000E+30
       1.0000E+30  1.0000E+30  1.0000E+30  1.0000E+30  1.0000E+30  1.0000E+30  1.0000E+30  1.0000E+30  1.0000E+30  1.0000E+30
       1.0000E+30  1.0000E+30  1.0000E+30  1.0000E+30  1.0000E+30  1.0000E+30  1.0000E+30  1.0000E+30  1.0000E+30  1.0000E+30
       1.0000E+30  1.0000E+30  1.0000E+30  1.0000E+30  1.0000E+30  1.0000E+30  1.0000E+30  1.0000E+30  1.0000E+30  1.0000E+30
       1.0000E+30  1.0000E+30  1.0000E+30  1.0000E+30  1.0000E+30  1.0000E+30  1.0000E+30  1.0000E+30  1.0000E+30  1.0000E+30
       1.0000E+30  1.0000E+30  1.0000E+30  1.0000E+30  1.0000E+30  1.0000E+30  1.0000E+30  1.0000E+30  1.0000E+30  1.0000E+30
       1.0000E+30  1.0000E+30  1.0000E+30   42.40       40.57       37.02       34.08       30.95       27.85       24.76    
        21.72       18.71       15.71       12.68       9.632       6.528       3.322       0.000      1.0000E+30  1.0000E+30
  18   1.0000E+30  1.0000E+30  1.0000E+30  1.0000E+30  1.0000E+30  1.0000E+30  1.0000E+30  1.0000E+30  1.0000E+30  1.0000E+30
       1.0000E+30  1.0000E+30  1.0000E+30  1.0000E+30  1.0000E+30  1.0000E+30  1.0000E+30  1.0000E+30  1.0000E+30  1.0000E+30
       1.0000E+30  1.0000E+30  1.0000E+30  1.0000E+30  1.0000E+30  1.0000E+30  1.0000E+30  1.0000E+30  1.0000E+30  1.0000E+30
       1.0000E+30  1.0000E+30  1.0000E+30  1.0000E+30  1.0000E+30  1.0000E+30  1.0000E+30  1.0000E+30  1.0000E+30  1.0000E+30
       1.0000E+30  1.0000E+30  1.0000E+30  1.0000E+30  1.0000E+30  1.0000E+30  1.0000E+30  1.0000E+30  1.0000E+30  1.0000E+30
       1.0000E+30  1.0000E+30  1.0000E+30  1.0000E+30  1.0000E+30  1.0000E+30  1.0000E+30  1.0000E+30  1.0000E+30  1.0000E+30
       1.0000E+30  1.0000E+30  1.0000E+30  1.0000E+30  1.0000E+30  1.0000E+30  1.0000E+30  1.0000E+30  1.0000E+30  1.0000E+30
       1.0000E+30  1.0000E+30  1.0000E+30  1.0000E+30  1.0000E+30  1.0000E+30  1.0000E+30  1.0000E+30  1.0000E+30  1.0000E+30
        53.66       52.01       49.21       45.23       42.13       38.90       35.72       32.52       29.30       26.07    
        22.84       19.61       16.36       13.08       9.820       6.552       3.276       0.000      1.0000E+30  1.0000E+30
  19   1.0000E+30  1.0000E+30  1.0000E+30  1.0000E+30  1.0000E+30  1.0000E+30  1.0000E+30  1.0000E+30  1.0000E+30  1.0000E+30
       1.0000E+30  1.0000E+30  1.0000E+30  1.0000E+30  1.0000E+30  1.0000E+30  1.0000E+30  1.0000E+30  1.0000E+30  1.0000E+30
       1.0000E+30  1.0000E+30  1.0000E+30  1.0000E+30  1.0000E+30  1.0000E+30  1.0000E+30  1.0000E+30  1.0000E+30  1.0000E+30
       1.0000E+30  1.0000E+30  1.0000E+30  1.0000E+30  1.0000E+30  1.0000E+30  1.0000E+30  1.0000E+30  1.0000E+30  1.0000E+30
       1.0000E+30  1.0000E+30  1.0000E+30  1.0000E+30  1.0000E+30  1.0000E+30  1.0000E+30  1.0000E+30  1.0000E+30  1.0000E+30
       1.0000E+30  1.0000E+30  1.0000E+30  1.0000E+30  1.0000E+30  1.0000E+30  1.0000E+30  1.0000E+30  1.0000E+30  1.0000E+30
       1.0000E+30  1.0000E+30  1.0000E+30  1.0000E+30  1.0000E+30  1.0000E+30  1.0000E+30  1.0000E+30  1.0000E+30  1.0000E+30
       1.0000E+30  1.0000E+30  1.0000E+30  1.0000E+30  1.0000E+30  1.0000E+30  1.0000E+30   63.40       62.01       59.63    
        56.23       53.36       50.33       47.02       43.77       40.50       37.22       33.91       30.56       27.19    
        23.79       20.35       16.88       13.37       9.849       6.405       3.106       0.000      1.0000E+30  1.0000E+30
  20   1.0000E+30  1.0000E+30  1.0000E+30  1.0000E+30  1.0000E+30  1.0000E+30  1.0000E+30  1.0000E+30  1.0000E+30  1.0000E+30
       1.0000E+30  1.0000E+30  1.0000E+30  1.0000E+30  1.0000E+30  1.0000E+30  1.0000E+30  1.0000E+30  1.0000E+30  1.0000E+30
       1.0000E+30  1.0000E+30  1.0000E+30  1.0000E+30  1.0000E+30  1.0000E+30  1.0000E+30  1.0000E+30  1.0000E+30  1.0000E+30
       1.0000E+30  1.0000E+30  1.0000E+30  1.0000E+30  1.0000E+30  1.0000E+30  1.0000E+30  1.0000E+30  1.0000E+30  1.0000E+30
       1.0000E+30  1.0000E+30  1.0000E+30  1.0000E+30  1.0000E+30  1.0000E+30  1.0000E+30  1.0000E+30  1.0000E+30  1.0000E+30
       1.0000E+30  1.0000E+30  1.0000E+30  1.0000E+30  1.0000E+30  1.0000E+30  1.0000E+30  1.0000E+30  1.0000E+30  1.0000E+30
       1.0000E+30  1.0000E+30  1.0000E+30  1.0000E+30  1.0000E+30  1.0000E+30  1.0000E+30  1.0000E+30  1.0000E+30  1.0000E+30
       1.0000E+30  1.0000E+30  1.0000E+30  1.0000E+30  1.0000E+30   69.45       68.09       65.52       63.23       60.68    
        57.79       54.83       51.75       48.54       45.26       41.94       38.57       35.15       31.68       28.16    
        24.59       20.96       17.27       13.51       9.706       5.938       2.428       0.000      1.0000E+30  1.0000E+30
  21   1.0000E+30  1.0000E+30  1.0000E+30  1.0000E+30  1.0000E+30  1.0000E+30  1.0000E+30  1.0000E+30  1.0000E+30  1.0000E+30
       1.0000E+30  1.0000E+30  1.0000E+30  1.0000E+30  1.0000E+30  1.0000E+30  1.0000E+30  1.0000E+30  1.0000E+30  1.0000E+30
       1.0000E+30  1.0000E+30  1.0000E+30  1.0000E+30  1.0000E+30  1.0000E+30  1.0000E+30  1.0000E+30  1.0000E+30  1.0000E+30
       1.0000E+30  1.0000E+30  1.0000E+30  1.0000E+30  1.0000E+30  1.0000E+30  1.0000E+30  1.0000E+30  1.0000E+30  1.0000E+30
       1.0000E+30  1.0000E+30  1.0000E+30  1.0000E+30  1.0000E+30  1.0000E+30  1.0000E+30  1.0000E+30  1.0000E+30  1.0000E+30
       1.0000E+30  1.0000E+30  1.0000E+30  1.0000E+30  1.0000E+30  1.0000E+30  1.0000E+30  1.0000E+30  1.0000E+30  1.0000E+30
       1.0000E+30  1.0000E+30  1.0000E+30  1.0000E+30  1.0000E+30  1.0000E+30  1.0000E+30  1.0000E+30  1.0000E+30  1.0000E+30
       1.0000E+30  1.0000E+30  1.0000E+30  1.0000E+30   72.97       71.34       69.48       67.19       64.74       62.10    
        59.27       56.28       53.17       49.95       46.64       43.25       39.79       36.27       32.68       29.03    
        25.29       21.48       17.56       13.54       9.377       4.959       0.000      1.0000E+30  1.0000E+30  1.0000E+30
  22   1.0000E+30  1.0000E+30  1.0000E+30  1.0000E+30  1.0000E+30  1.0000E+30  1.0000E+30  1.0000E+30  1.0000E+30  1.0000E+30
       1.0000E+30  1.0000E+30  1.0000E+30  1.0000E+30  1.0000E+30  1.0000E+30  1.0000E+30  1.0000E+30  1.0000E+30  1.0000E+30
       1.0000E+30  1.0000E+30  1.0000E+30  1.0000E+30  1.0000E+30  1.0000E+30  1.0000E+30  1.0000E+30  1.0000E+30  1.0000E+30
       1.0000E+30  1.0000E+30  1.0000E+30  1.0000E+30  1.0000E+30  1.0000E+30  1.0000E+30  1.0000E+30  1.0000E+30  1.0000E+30
       1.0000E+30  1.0000E+30  1.0000E+30  1.0000E+30  1.0000E+30  1.0000E+30  1.0000E+30  1.0000E+30  1.0000E+30  1.0000E+30
       1.0000E+30  1.0000E+30  1.0000E+30  1.0000E+30  1.0000E+30  1.0000E+30  1.0000E+30  1.0000E+30  1.0000E+30  1.0000E+30
       1.0000E+30  1.0000E+30  1.0000E+30  1.0000E+30  1.0000E+30  1.0000E+30  1.0000E+30  1.0000E+30  1.0000E+30  1.0000E+30
       1.0000E+30  1.0000E+30  1.0000E+30   76.97       75.24       73.34       71.23       68.89       66.35       63.63    
        60.76       57.73       54.57       51.30       47.93       44.47       40.93       37.31       33.60       29.81    
        25.93       21.94       17.85       13.64       9.275       4.721       0.000      1.0000E+30  1.0000E+30  1.0000E+30
  23   1.0000E+30  1.0000E+30  1.0000E+30  1.0000E+30  1.0000E+30  1.0000E+30  1.0000E+30  1.0000E+30  1.0000E+30  1.0000E+30
       1.0000E+30  1.0000E+30  1.0000E+30  1.0000E+30  1.0000E+30  1.0000E+30  1.0000E+30  1.0000E+30  1.0000E+30  1.0000E+30
       1.0000E+30  1.0000E+30  1.0000E+30  1.0000E+30  1.0000E+30  1.0000E+30  1.0000E+30  1.0000E+30  1.0000E+30  1.0000E+30
       1.0000E+30  1.0000E+30  1.0000E+30  1.0000E+30  1.0000E+30  1.0000E+30  1.0000E+30  1.0000E+30  1.0000E+30  1.0000E+30
       1.0000E+30  1.0000E+30  1.0000E+30  1.0000E+30  1.0000E+30  1.0000E+30  1.0000E+30  1.0000E+30  1.0000E+30  1.0000E+30
       1.0000E+30  1.0000E+30  1.0000E+30  1.0000E+30  1.0000E+30  1.0000E+30  1.0000E+30  1.0000E+30  1.0000E+30  1.0000E+30
       1.0000E+30  1.0000E+30  1.0000E+30  1.0000E+30  1.0000E+30  1.0000E+30  1.0000E+30  1.0000E+30  1.0000E+30  1.0000E+30
       1.0000E+30  1.0000E+30   80.83       79.24       77.44       75.39       73.12       70.66       68.02       65.22    
        62.27       59.17       55.95       52.61       49.17       45.63       41.99       38.27       34.45       30.54    
        26.52       22.41       18.18       13.81       9.295       4.679       0.000      1.0000E+30  1.0000E+30  1.0000E+30
  24   1.0000E+30  1.0000E+30  1.0000E+30  1.0000E+30  1.0000E+30  1.0000E+30  1.0000E+30  1.0000E+30  1.0000E+30  1.0000E+30
       1.0000E+30  1.0000E+30  1.0000E+30  1.0000E+30  1.0000E+30  1.0000E+30  1.0000E+30  1.0000E+30  1.0000E+30  1.0000E+30
       1.0000E+30  1.0000E+30  1.0000E+30  1.0000E+30  1.0000E+30  1.0000E+30  1.0000E+30  1.0000E+30  1.0000E+30  1.0000E+30
       1.0000E+30  1.0000E+30  1.0000E+30  1.0000E+30  1.0000E+30  1.0000E+30  1.0000E+30  1.0000E+30  1.0000E+30  1.0000E+30
       1.0000E+30  1.0000E+30  1.0000E+30  1.0000E+30  1.0000E+30  1.0000E+30  1.0000E+30  1.0000E+30  1.0000E+30  1.0000E+30
       1.0000E+30  1.0000E+30  1.0000E+30  1.0000E+30  1.0000E+30  1.0000E+30  1.0000E+30  1.0000E+30  1.0000E+30  1.0000E+30
       1.0000E+30  1.0000E+30  1.0000E+30  1.0000E+30  1.0000E+30  1.0000E+30  1.0000E+30  1.0000E+30  1.0000E+30  1.0000E+30
        84.96       84.50       82.97       81.34       79.48       77.39       75.03       72.45       69.71       66.83    
        63.79       60.61       57.30       53.88       50.35       46.73       43.00       39.18       35.26       31.23    
        27.10       22.86       18.50       14.02       9.412       4.738       0.000      1.0000E+30  1.0000E+30  1.0000E+30
  25   1.0000E+30  1.0000E+30  1.0000E+30  1.0000E+30  1.0000E+30  1.0000E+30  1.0000E+30  1.0000E+30  1.0000E+30  1.0000E+30
       1.0000E+30  1.0000E+30  1.0000E+30  1.0000E+30  1.0000E+30  1.0000E+30  1.0000E+30  1.0000E+30  1.0000E+30  1.0000E+30
       1.0000E+30  1.0000E+30  1.0000E+30  1.0000E+30  1.0000E+30  1.0000E+30  1.0000E+30  1.0000E+30  1.0000E+30  1.0000E+30
       1.0000E+30  1.0000E+30  1.0000E+30  1.0000E+30  1.0000E+30  1.0000E+30  1.0000E+30  1.0000E+30  1.0000E+30  1.0000E+30
       1.0000E+30  1.0000E+30  1.0000E+30  1.0000E+30  1.0000E+30  1.0000E+30  1.0000E+30  1.0000E+30  1.0000E+30  1.0000E+30
       1.0000E+30  1.0000E+30  1.0000E+30  1.0000E+30  1.0000E+30  1.0000E+30  1.0000E+30  1.0000E+30  1.0000E+30  1.0000E+30
       1.0000E+30  1.0000E+30  1.0000E+30  1.0000E+30  1.0000E+30  1.0000E+30  1.0000E+30  1.0000E+30  1.0000E+30  1.0000E+30
        85.53       85.85       84.96       83.44       81.52       79.31       76.87       74.21       71.38       68.41    
        65.29       62.02       58.63       55.12       51.50       47.78       43.96       40.04       36.02       31.89    
        27.65       23.30       18.82       14.24       9.577       4.830       0.000      1.0000E+30  1.0000E+30  1.0000E+30
  26   1.0000E+30  1.0000E+30  1.0000E+30  1.0000E+30  1.0000E+30  1.0000E+30  1.0000E+30  1.0000E+30  1.0000E+30  1.0000E+30
       1.0000E+30  1.0000E+30  1.0000E+30  1.0000E+30  1.0000E+30  1.0000E+30  1.0000E+30  1.0000E+30  1.0000E+30  1.0000E+30
       1.0000E+30  1.0000E+30  1.0000E+30  1.0000E+30  1.0000E+30  1.0000E+30  1.0000E+30  1.0000E+30  1.0000E+30  1.0000E+30
       1.0000E+30  1.0000E+30  1.0000E+30  1.0000E+30  1.0000E+30  1.0000E+30  1.0000E+30  1.0000E+30  1.0000E+30  1.0000E+30
       1.0000E+30  1.0000E+30  1.0000E+30  1.0000E+30  1.0000E+30  1.0000E+30  1.0000E+30  1.0000E+30  1.0000E+30  1.0000E+30
       1.0000E+30  1.0000E+30  1.0000E+30  1.0000E+30  1.0000E+30  1.0000E+30  1.0000E+30  1.0000E+30  1.0000E+30  1.0000E+30
       1.0000E+30  1.0000E+30  1.0000E+30  1.0000E+30  1.0000E+30  1.0000E+30  1.0000E+30  1.0000E+30  1.0000E+30  1.0000E+30
       1.0000E+30   88.94       87.64       85.79       83.62       81.24       78.67       75.92       73.00       69.96    
        66.76       63.39       59.91       56.31       52.60       48.79       44.88       40.87       36.75       32.53    
        28.19       23.73       19.16       14.50       9.750       4.914       0.000      1.0000E+30  1.0000E+30  1.0000E+30
  27   1.0000E+30  1.0000E+30  1.0000E+30  1.0000E+30  1.0000E+30  1.0000E+30  1.0000E+30  1.0000E+30  1.0000E+30  1.0000E+30
       1.0000E+30  1.0000E+30  1.0000E+30  1.0000E+30  1.0000E+30  1.0000E+30  1.0000E+30  1.0000E+30  1.0000E+30  1.0000E+30
       1.0000E+30  1.0000E+30  1.0000E+30  1.0000E+30  1.0000E+30  1.0000E+30  1.0000E+30  1.0000E+30  1.0000E+30  1.0000E+30
       1.0000E+30  1.0000E+30  1.0000E+30  1.0000E+30  1.0000E+30  1.0000E+30  1.0000E+30  1.0000E+30  1.0000E+30  1.0000E+30
       1.0000E+30  1.0000E+30  1.0000E+30  1.0000E+30  1.0000E+30  1.0000E+30  1.0000E+30  1.0000E+30  1.0000E+30  1.0000E+30
       1.0000E+30  1.0000E+30  1.0000E+30  1.0000E+30  1.0000E+30  1.0000E+30  1.0000E+30  1.0000E+30  1.0000E+30  1.0000E+30
        114.5       114.2       113.6       112.8       111.7       110.4       108.8       106.8       104.5       101.7    
        98.28       93.83       90.86       88.27       85.73       83.11       80.39       77.54       74.55       71.43    
        68.16       64.70       61.13       57.46       53.66       49.76       45.77       41.67       37.46       33.14    
        28.71       24.16       19.50       14.76       9.921       5.000       0.000      1.0000E+30  1.0000E+30  1.0000E+30
  28   1.0000E+30  1.0000E+30  1.0000E+30  1.0000E+30  1.0000E+30  1.0000E+30  1.0000E+30  1.0000E+30  1.0000E+30  1.0000E+30
       1.0000E+30  1.0000E+30  1.0000E+30  1.0000E+30  1.0000E+30  1.0000E+30  1.0000E+30  1.0000E+30  1.0000E+30  1.0000E+30
       1.0000E+30  1.0000E+30  1.0000E+30  1.0000E+30  1.0000E+30  1.0000E+30  1.0000E+30  1.0000E+30  1.0000E+30  1.0000E+30
       1.0000E+30  1.0000E+30  1.0000E+30  1.0000E+30  1.0000E+30  1.0000E+30  1.0000E+30  1.0000E+30  1.0000E+30  1.0000E+30
       1.0000E+30  1.0000E+30  1.0000E+30  1.0000E+30  1.0000E+30  1.0000E+30  1.0000E+30  1.0000E+30  1.0000E+30  1.0000E+30
       1.0000E+30  1.0000E+30  1.0000E+30  1.0000E+30  1.0000E+30  1.0000E+30  1.0000E+30  1.0000E+30   115.2       115.1    
        114.9       114.5       113.9       113.0       111.9       110.6       109.0       107.1       104.9       102.3    
        99.36       96.12       93.15       90.36       87.61       84.84       82.00       79.07       76.01       72.82    
        69.46       65.94       62.30       58.54       54.67       50.69       46.61       42.43       38.14       33.74    
        29.22       24.60       19.86       15.01       10.08       5.096       0.000      1.0000E+30  1.0000E+30  1.0000E+30
  29   1.0000E+30  1.0000E+30  1.0000E+30  1.0000E+30  1.0000E+30  1.0000E+30  1.0000E+30  1.0000E+30  1.0000E+30  1.0000E+30
       1.0000E+30  1.0000E+30  1.0000E+30  1.0000E+30  1.0000E+30  1.0000E+30  1.0000E+30  1.0000E+30  1.0000E+30  1.0000E+30
       1.0000E+30  1.0000E+30  1.0000E+30  1.0000E+30  1.0000E+30  1.0000E+30  1.0000E+30  1.0000E+30  1.0000E+30  1.0000E+30
       1.0000E+30  1.0000E+30  1.0000E+30  1.0000E+30  1.0000E+30  1.0000E+30  1.0000E+30  1.0000E+30  1.0000E+30  1.0000E+30
       1.0000E+30  1.0000E+30  1.0000E+30  1.0000E+30  1.0000E+30  1.0000E+30  1.0000E+30  1.0000E+30  1.0000E+30  1.0000E+30
       1.0000E+30  1.0000E+30  1.0000E+30  1.0000E+30  1.0000E+30  1.0000E+30  1.0000E+30  1.0000E+30  1.0000E+30   115.3    
        115.4       115.1       114.4       113.5       112.4       111.1       109.5       107.6       105.5       103.1    
        100.5       97.67       94.85       92.03       89.23       86.40       83.50       80.48       77.36       74.09    
        70.67       67.10       63.38       59.55       55.62       51.58       47.42       43.16       38.79       34.30    
        29.71       25.02       20.22       15.29       10.28       5.203       0.000      1.0000E+30  1.0000E+30  1.0000E+30
  30   1.0000E+30  1.0000E+30  1.0000E+30  1.0000E+30  1.0000E+30  1.0000E+30  1.0000E+30  1.0000E+30  1.0000E+30  1.0000E+30
       1.0000E+30  1.0000E+30  1.0000E+30  1.0000E+30  1.0000E+30  1.0000E+30  1.0000E+30  1.0000E+30  1.0000E+30  1.0000E+30
       1.0000E+30  1.0000E+30  1.0000E+30  1.0000E+30  1.0000E+30  1.0000E+30  1.0000E+30  1.0000E+30  1.0000E+30  1.0000E+30
       1.0000E+30  1.0000E+30  1.0000E+30  1.0000E+30  1.0000E+30  1.0000E+30  1.0000E+30  1.0000E+30  1.0000E+30  1.0000E+30
       1.0000E+30  1.0000E+30  1.0000E+30  1.0000E+30  1.0000E+30  1.0000E+30  1.0000E+30  1.0000E+30  1.0000E+30  1.0000E+30
       1.0000E+30  1.0000E+30  1.0000E+30  1.0000E+30  1.0000E+30  1.0000E+30  1.0000E+30  1.0000E+30  1.0000E+30  1.0000E+30
        116.5       116.0       115.3       114.3       113.1       111.7       110.1       108.3       106.3       104.0    
        101.5       98.92       96.20       93.44       90.63       87.78       84.84       81.78       78.60       75.29    
        71.81       68.16       64.38       60.49       56.50       52.40       48.19       43.86       39.43       34.87    
        30.19       25.41       20.55       15.56       10.48       5.304       0.000      1.0000E+30  1.0000E+30  1.0000E+30
  31   1.0000E+30  1.0000E+30  1.0000E+30  1.0000E+30  1.0000E+30  1.0000E+30  1.0000E+30  1.0000E+30  1.0000E+30  1.0000E+30
       1.0000E+30  1.0000E+30  1.0000E+30  1.0000E+30  1.0000E+30  1.0000E+30  1.0000E+30  1.0000E+30  1.0000E+30  1.0000E+30
       1.0000E+30  1.0000E+30  1.0000E+30  1.0000E+30  1.0000E+30  1.0000E+30  1.0000E+30  1.0000E+30  1.0000E+30  1.0000E+30
       1.0000E+30  1.0000E+30  1.0000E+30  1.0000E+30  1.0000E+30  1.0000E+30  1.0000E+30  1.0000E+30  1.0000E+30  1.0000E+30
       1.0000E+30  1.0000E+30  1.0000E+30  1.0000E+30  1.0000E+30  1.0000E+30  1.0000E+30  1.0000E+30  1.0000E+30  1.0000E+30
       1.0000E+30  1.0000E+30  1.0000E+30  1.0000E+30  1.0000E+30  1.0000E+30  1.0000E+30  1.0000E+30  1.0000E+30   119.4    
        118.4       117.4       116.4       115.3       114.0       112.5       110.9       109.1       107.1       104.9    
        102.5       100.0       97.38       94.67       91.87       89.00       86.04       82.96       79.75       76.39    
        72.85       69.14       65.29       61.35       57.31       53.17       48.91       44.54       40.04       35.41    
        30.66       25.81       20.86       15.80       10.64       5.368       0.000      1.0000E+30  1.0000E+30  1.0000E+30
  32   1.0000E+30  1.0000E+30  1.0000E+30  1.0000E+30  1.0000E+30  1.0000E+30  1.0000E+30  1.0000E+30  1.0000E+30  1.0000E+30
       1.0000E+30  1.0000E+30  1.0000E+30  1.0000E+30  1.0000E+30  1.0000E+30  1.0000E+30  1.0000E+30  1.0000E+30  1.0000E+30
       1.0000E+30  1.0000E+30  1.0000E+30  1.0000E+30  1.0000E+30  1.0000E+30  1.0000E+30  1.0000E+30  1.0000E+30  1.0000E+30
       1.0000E+30  1.0000E+30  1.0000E+30  1.0000E+30  1.0000E+30  1.0000E+30  1.0000E+30  1.0000E+30  1.0000E+30  1.0000E+30
       1.0000E+30  1.0000E+30  1.0000E+30  1.0000E+30  1.0000E+30  1.0000E+30  1.0000E+30  1.0000E+30  1.0000E+30  1.0000E+30
       1.0000E+30  1.0000E+30  1.0000E+30  1.0000E+30  1.0000E+30  1.0000E+30  1.0000E+30  1.0000E+30   122.0       120.9    
        119.9       118.8       117.6       116.4       115.0       113.5       111.8       110.0       108.0       105.8    
        103.5       101.0       98.45       95.77       92.99       90.11       87.12       84.03       80.81       77.41    
        73.81       70.04       66.15       62.17       58.08       53.89       49.59       45.17       40.61       35.92    
        31.11       26.20       21.18       16.03       10.78       5.449       0.000      1.0000E+30  1.0000E+30  1.0000E+30
  33   1.0000E+30  1.0000E+30  1.0000E+30  1.0000E+30  1.0000E+30  1.0000E+30  1.0000E+30  1.0000E+30  1.0000E+30  1.0000E+30
       1.0000E+30  1.0000E+30  1.0000E+30  1.0000E+30  1.0000E+30  1.0000E+30  1.0000E+30  1.0000E+30  1.0000E+30  1.0000E+30
       1.0000E+30  1.0000E+30  1.0000E+30  1.0000E+30  1.0000E+30  1.0000E+30  1.0000E+30  1.0000E+30  1.0000E+30  1.0000E+30
       1.0000E+30  1.0000E+30  1.0000E+30  1.0000E+30  1.0000E+30  1.0000E+30  1.0000E+30  1.0000E+30  1.0000E+30  1.0000E+30
       1.0000E+30  1.0000E+30  1.0000E+30  1.0000E+30  1.0000E+30  1.0000E+30  1.0000E+30  1.0000E+30  1.0000E+30  1.0000E+30
       1.0000E+30  1.0000E+30  1.0000E+30  1.0000E+30  1.0000E+30  1.0000E+30  1.0000E+30   124.4       123.5       122.4    
        121.3       120.2       118.9       117.6       116.1       114.5       112.8       110.9       108.9       106.7    
        104.4       102.0       99.44       96.77       94.01       91.13       88.12       85.00       81.74       78.30    
        74.68       70.89       66.96       62.94       58.81       54.58       50.23       45.76       41.14       36.39    
        31.54       26.57       21.48       16.26       10.95       5.551       0.000      1.0000E+30  1.0000E+30  1.0000E+30
  34   1.0000E+30  1.0000E+30  1.0000E+30  1.0000E+30  1.0000E+30  1.0000E+30  1.0000E+30  1.0000E+30  1.0000E+30  1.0000E+30
       1.0000E+30  1.0000E+30  1.0000E+30  1.0000E+30  1.0000E+30  1.0000E+30  1.0000E+30  1.0000E+30  1.0000E+30  1.0000E+30
       1.0000E+30  1.0000E+30  1.0000E+30  1.0000E+30  1.0000E+30  1.0000E+30  1.0000E+30  1.0000E+30  1.0000E+30  1.0000E+30
       1.0000E+30  1.0000E+30  1.0000E+30  1.0000E+30  1.0000E+30  1.0000E+30  1.0000E+30  1.0000E+30  1.0000E+30  1.0000E+30
       1.0000E+30  1.0000E+30  1.0000E+30  1.0000E+30  1.0000E+30  1.0000E+30  1.0000E+30  1.0000E+30  1.0000E+30  1.0000E+30
       1.0000E+30  1.0000E+30  1.0000E+30  1.0000E+30  1.0000E+30  1.0000E+30  1.0000E+30   125.7       125.0       124.0    
        122.9       121.6       120.3       118.9       117.3       115.7       113.9       111.9       109.9       107.7    
        105.4       102.9       100.4       97.73       94.96       92.06       89.03       85.87       82.57       79.11    
        75.47       71.67       67.72       63.66       59.49       55.21       50.82       46.29       41.63       36.83    
        31.92       26.89       21.75       16.48       11.11       5.635       0.000      1.0000E+30  1.0000E+30  1.0000E+30
  35   1.0000E+30  1.0000E+30  1.0000E+30  1.0000E+30  1.0000E+30  1.0000E+30  1.0000E+30  1.0000E+30  1.0000E+30  1.0000E+30
       1.0000E+30  1.0000E+30  1.0000E+30  1.0000E+30  1.0000E+30  1.0000E+30  1.0000E+30  1.0000E+30  1.0000E+30  1.0000E+30
       1.0000E+30  1.0000E+30  1.0000E+30  1.0000E+30  1.0000E+30  1.0000E+30  1.0000E+30  1.0000E+30  1.0000E+30  1.0000E+30
       1.0000E+30  1.0000E+30  1.0000E+30  1.0000E+30  1.0000E+30  1.0000E+30  1.0000E+30  1.0000E+30  1.0000E+30  1.0000E+30
       1.0000E+30  1.0000E+30  1.0000E+30  1.0000E+30  1.0000E+30  1.0000E+30  1.0000E+30  1.0000E+30  1.0000E+30  1.0000E+30
       1.0000E+30  1.0000E+30  1.0000E+30  1.0000E+30  1.0000E+30  1.0000E+30   129.0       127.9       126.8       125.7    
        124.5       123.1       121.7       120.2       118.6       116.9       115.0       113.0       110.9       108.7    
        106.3       103.9       101.3       98.63       95.84       92.92       89.87       86.68       83.35       79.85    
        76.19       72.38       68.42       64.33       60.13       55.81       51.37       46.79       42.08       37.23    
        32.26       27.18       21.98       16.66       11.23       5.701       0.000      1.0000E+30  1.0000E+30  1.0000E+30
  36   1.0000E+30  1.0000E+30  1.0000E+30  1.0000E+30  1.0000E+30  1.0000E+30  1.0000E+30  1.0000E+30  1.0000E+30  1.0000E+30
       1.0000E+30  1.0000E+30  1.0000E+30  1.0000E+30  1.0000E+30  1.0000E+30  1.0000E+30  1.0000E+30  1.0000E+30  1.0000E+30
       1.0000E+30  1.0000E+30  1.0000E+30  1.0000E+30  1.0000E+30  1.0000E+30  1.0000E+30  1.0000E+30  1.0000E+30  1.0000E+30
       1.0000E+30  1.0000E+30  1.0000E+30  1.0000E+30  1.0000E+30  1.0000E+30  1.0000E+30  1.0000E+30  1.0000E+30  1.0000E+30
       1.0000E+30  1.0000E+30  1.0000E+30  1.0000E+30  1.0000E+30  1.0000E+30  1.0000E+30  1.0000E+30  1.0000E+30  1.0000E+30
       1.0000E+30  1.0000E+30  1.0000E+30  1.0000E+30  1.0000E+30   131.1       130.3       129.4       128.4       127.2    
        125.9       124.6       123.1       121.5       119.8       118.1       116.2       114.2       112.0       109.7    
        107.3       104.8       102.2       99.50       96.69       93.74       90.65       87.43       84.06       80.54    
        76.86       73.04       69.07       64.96       60.73       56.38       51.89       47.27       42.50       37.59    
        32.56       27.40       22.14       16.77       11.29       5.734       0.000      1.0000E+30  1.0000E+30  1.0000E+30
  37   1.0000E+30  1.0000E+30  1.0000E+30  1.0000E+30  1.0000E+30  1.0000E+30  1.0000E+30  1.0000E+30  1.0000E+30  1.0000E+30
       1.0000E+30  1.0000E+30  1.0000E+30  1.0000E+30  1.0000E+30  1.0000E+30  1.0000E+30  1.0000E+30  1.0000E+30  1.0000E+30
       1.0000E+30  1.0000E+30  1.0000E+30  1.0000E+30  1.0000E+30  1.0000E+30  1.0000E+30  1.0000E+30  1.0000E+30  1.0000E+30
       1.0000E+30  1.0000E+30  1.0000E+30  1.0000E+30  1.0000E+30  1.0000E+30  1.0000E+30  1.0000E+30  1.0000E+30  1.0000E+30
       1.0000E+30  1.0000E+30  1.0000E+30  1.0000E+30  1.0000E+30  1.0000E+30  1.0000E+30  1.0000E+30  1.0000E+30  1.0000E+30
       1.0000E+30  1.0000E+30  1.0000E+30  1.0000E+30  1.0000E+30   132.2       131.6       130.6       129.6       128.4    
        127.2       125.8       124.3       122.7       121.0       119.2       117.3       115.3       113.1       110.8    
        108.4       105.8       103.1       100.4       97.51       94.52       91.40       88.15       84.74       81.19    
        77.50       73.67       69.69       65.57       61.32       56.92       52.39       47.72       42.90       37.92    
        32.81       27.57       22.21       16.77       11.26       5.704       0.000      1.0000E+30  1.0000E+30  1.0000E+30
  38   1.0000E+30  1.0000E+30  1.0000E+30  1.0000E+30  1.0000E+30  1.0000E+30  1.0000E+30  1.0000E+30  1.0000E+30  1.0000E+30
       1.0000E+30  1.0000E+30  1.0000E+30  1.0000E+30  1.0000E+30  1.0000E+30  1.0000E+30  1.0000E+30  1.0000E+30  1.0000E+30
       1.0000E+30  1.0000E+30  1.0000E+30  1.0000E+30  1.0000E+30  1.0000E+30  1.0000E+30  1.0000E+30  1.0000E+30  1.0000E+30
       1.0000E+30  1.0000E+30  1.0000E+30  1.0000E+30  1.0000E+30  1.0000E+30  1.0000E+30  1.0000E+30  1.0000E+30  1.0000E+30
       1.0000E+30  1.0000E+30  1.0000E+30  1.0000E+30  1.0000E+30  1.0000E+30  1.0000E+30  1.0000E+30  1.0000E+30  1.0000E+30
       1.0000E+30  1.0000E+30  1.0000E+30   136.5       135.7       134.2       133.0       131.9       130.8       129.6    
        128.3       126.9       125.4       123.8       122.1       120.3       118.4       116.4       114.2       111.9    
        109.4       106.8       104.0       101.2       98.31       95.28       92.13       88.84       85.40       81.82    
        78.12       74.28       70.29       66.17       61.88       57.45       52.87       48.14       43.25       38.20    
        33.00       27.65       22.20       16.66       11.09       5.562       0.000      1.0000E+30  1.0000E+30  1.0000E+30
  39   1.0000E+30  1.0000E+30  1.0000E+30  1.0000E+30  1.0000E+30  1.0000E+30  1.0000E+30  1.0000E+30  1.0000E+30  1.0000E+30
       1.0000E+30  1.0000E+30  1.0000E+30  1.0000E+30  1.0000E+30  1.0000E+30  1.0000E+30  1.0000E+30  1.0000E+30  1.0000E+30
       1.0000E+30  1.0000E+30  1.0000E+30  1.0000E+30  1.0000E+30  1.0000E+30  1.0000E+30  1.0000E+30  1.0000E+30  1.0000E+30
       1.0000E+30  1.0000E+30  1.0000E+30  1.0000E+30  1.0000E+30  1.0000E+30  1.0000E+30  1.0000E+30  1.0000E+30  1.0000E+30
       1.0000E+30  1.0000E+30  1.0000E+30  1.0000E+30  1.0000E+30  1.0000E+30  1.0000E+30   140.5       140.5       140.4    
        140.1       139.6       138.9       137.6       136.6       135.4       134.2       133.1       131.9       130.7    
        129.3       127.9       126.4       124.8       123.0       121.2       119.3       117.3       115.1       112.8    
        110.4       107.7       104.9       102.1       99.12       96.04       92.84       89.51       86.05       82.45    
        78.73       74.87       70.87       66.73       62.42       57.95       53.32       48.53       43.57       38.44    
        33.14       27.67       22.07       16.39       10.69       5.161       0.000      1.0000E+30  1.0000E+30  1.0000E+30
  40   1.0000E+30  1.0000E+30  1.0000E+30  1.0000E+30  1.0000E+30  1.0000E+30  1.0000E+30  1.0000E+30  1.0000E+30  1.0000E+30
       1.0000E+30  1.0000E+30  1.0000E+30  1.0000E+30  1.0000E+30  1.0000E+30  1.0000E+30  1.0000E+30  1.0000E+30  1.0000E+30
       1.0000E+30  1.0000E+30  1.0000E+30  1.0000E+30  1.0000E+30  1.0000E+30  1.0000E+30  1.0000E+30  1.0000E+30  1.0000E+30
       1.0000E+30  1.0000E+30  1.0000E+30  1.0000E+30  1.0000E+30  1.0000E+30  1.0000E+30  1.0000E+30  1.0000E+30  1.0000E+30
       1.0000E+30  1.0000E+30  1.0000E+30  1.0000E+30  1.0000E+30  1.0000E+30  1.0000E+30   140.6       140.6       140.5    
        140.4       140.0       139.3       138.4       137.4       136.3       135.2       134.1       132.9       131.6    
        130.2       128.8       127.3       125.7       124.0       122.1       120.1       118.1       115.9       113.6    
        111.2       108.5       105.8       102.9       99.94       96.81       93.56       90.19       86.69       83.07    
        79.33       75.46       71.45       67.27       62.93       58.42       53.75       48.90       43.87       38.66    
        33.25       27.65       21.86       15.89       9.804       4.012       0.000      1.0000E+30  1.0000E+30  1.0000E+30
  41   1.0000E+30  1.0000E+30  1.0000E+30  1.0000E+30  1.0000E+30  1.0000E+30  1.0000E+30  1.0000E+30  1.0000E+30  1.0000E+30
       1.0000E+30  1.0000E+30  1.0000E+30  1.0000E+30  1.0000E+30  1.0000E+30  1.0000E+30  1.0000E+30  1.0000E+30  1.0000E+30
       1.0000E+30  1.0000E+30  1.0000E+30  1.0000E+30  1.0000E+30  1.0000E+30  1.0000E+30  1.0000E+30  1.0000E+30  1.0000E+30
       1.0000E+30  1.0000E+30  1.0000E+30  1.0000E+30  1.0000E+30  1.0000E+30  1.0000E+30  1.0000E+30  1.0000E+30  1.0000E+30
       1.0000E+30  1.0000E+30  1.0000E+30  1.0000E+30  1.0000E+30  1.0000E+30  1.0000E+30  1.0000E+30   140.7       140.8    
        140.9       140.6       140.0       139.2       138.2       137.2       136.1       134.9       133.7       132.4    
        131.1       129.6       128.1       126.5       124.7       122.9       120.9       118.8       116.6       114.3    
        111.8       109.2       106.5       103.7       100.7       97.57       94.29       90.88       87.35       83.69    
        79.92       76.03       71.99       67.79       63.43       58.89       54.18       49.29       44.21       38.93    
        33.43       27.70       21.70       15.30       8.271       0.000      1.0000E+30  1.0000E+30  1.0000E+30  1.0000E+30
  42   1.0000E+30  1.0000E+30  1.0000E+30  1.0000E+30  1.0000E+30  1.0000E+30  1.0000E+30  1.0000E+30  1.0000E+30  1.0000E+30
       1.0000E+30  1.0000E+30  1.0000E+30  1.0000E+30  1.0000E+30  1.0000E+30  1.0000E+30  1.0000E+30  1.0000E+30  1.0000E+30
       1.0000E+30  1.0000E+30  1.0000E+30  1.0000E+30  1.0000E+30  1.0000E+30  1.0000E+30  1.0000E+30  1.0000E+30  1.0000E+30
       1.0000E+30  1.0000E+30  1.0000E+30  1.0000E+30  1.0000E+30  1.0000E+30  1.0000E+30  1.0000E+30  1.0000E+30  1.0000E+30
       1.0000E+30  1.0000E+30  1.0000E+30  1.0000E+30  1.0000E+30  1.0000E+30  1.0000E+30  1.0000E+30  1.0000E+30  1.0000E+30
        142.2       141.7       140.9       140.0       139.1       138.0       136.9       135.7       134.5       133.2    
        131.8       130.4       128.8       127.1       125.4       123.5       121.6       119.5       117.3       114.9    
        112.4       109.8       107.1       104.3       101.3       98.17       94.90       91.49       87.95       84.29    
        80.50       76.59       72.52       68.30       63.92       59.36       54.62       49.70       44.59       39.26    
        33.72       27.94       21.87       15.41       8.315       0.000      1.0000E+30  1.0000E+30  1.0000E+30  1.0000E+30
  43   1.0000E+30  1.0000E+30  1.0000E+30  1.0000E+30  1.0000E+30  1.0000E+30  1.0000E+30  1.0000E+30  1.0000E+30  1.0000E+30
       1.0000E+30  1.0000E+30  1.0000E+30  1.0000E+30  1.0000E+30  1.0000E+30  1.0000E+30  1.0000E+30  1.0000E+30  1.0000E+30
       1.0000E+30  1.0000E+30  1.0000E+30  1.0000E+30  1.0000E+30  1.0000E+30  1.0000E+30  1.0000E+30  1.0000E+30  1.0000E+30
       1.0000E+30  1.0000E+30  1.0000E+30  1.0000E+30  1.0000E+30  1.0000E+30  1.0000E+30  1.0000E+30  1.0000E+30  1.0000E+30
       1.0000E+30  1.0000E+30  1.0000E+30  1.0000E+30  1.0000E+30  1.0000E+30  1.0000E+30   147.8       147.1       145.8    
        144.1       142.9       141.9       140.9       139.9       138.8       137.6       136.4       135.2       133.9    
        132.5       131.0       129.4       127.7       126.0       124.1       122.2       120.1       117.8       115.5    
        113.0       110.4       107.7       104.8       101.8       98.67       95.41       92.02       88.49       84.84    
        81.05       77.13       73.05       68.81       64.40       59.83       55.07       50.13       44.98       39.63    
        34.08       28.34       22.38       16.24       10.03       4.137       0.000      1.0000E+30  1.0000E+30  1.0000E+30
  44   1.0000E+30  1.0000E+30  1.0000E+30  1.0000E+30  1.0000E+30  1.0000E+30  1.0000E+30  1.0000E+30  1.0000E+30  1.0000E+30
       1.0000E+30  1.0000E+30  1.0000E+30  1.0000E+30  1.0000E+30  1.0000E+30  1.0000E+30  1.0000E+30  1.0000E+30  1.0000E+30
       1.0000E+30  1.0000E+30  1.0000E+30  1.0000E+30  1.0000E+30  1.0000E+30  1.0000E+30  1.0000E+30  1.0000E+30  1.0000E+30
       1.0000E+30  1.0000E+30  1.0000E+30  1.0000E+30  1.0000E+30  1.0000E+30  1.0000E+30  1.0000E+30  1.0000E+30  1.0000E+30
       1.0000E+30  1.0000E+30   153.3       152.9       152.2       151.3       150.2       148.8       147.6       146.5    
        145.1       143.9       142.8       141.7       140.6       139.5       138.3       137.1       135.8       134.5    
        133.1       131.6       130.0       128.3       126.6       124.7       122.7       120.6       118.4       116.0    
        113.6       111.0       108.2       105.3       102.3       99.13       95.87       92.50       88.99       85.35    
        81.57       77.65       73.56       69.31       64.89       60.31       55.54       50.57       45.40       40.03    
        34.47       28.75       22.90       16.96       11.04       5.342       0.000      1.0000E+30  1.0000E+30  1.0000E+30
  45   1.0000E+30  1.0000E+30  1.0000E+30  1.0000E+30  1.0000E+30  1.0000E+30  1.0000E+30  1.0000E+30  1.0000E+30  1.0000E+30
       1.0000E+30  1.0000E+30  1.0000E+30  1.0000E+30  1.0000E+30  1.0000E+30  1.0000E+30  1.0000E+30  1.0000E+30  1.0000E+30
       1.0000E+30  1.0000E+30  1.0000E+30  1.0000E+30  1.0000E+30  1.0000E+30  1.0000E+30  1.0000E+30  1.0000E+30  1.0000E+30
       1.0000E+30  1.0000E+30  1.0000E+30  1.0000E+30  1.0000E+30  1.0000E+30  1.0000E+30  1.0000E+30  1.0000E+30  1.0000E+30
        155.3       154.8       154.0       153.3       152.4       151.5       150.4       149.3       148.2       147.1    
        145.9       144.8       143.6       142.5       141.3       140.2       139.0       137.8       136.5       135.1    
        133.7       132.1       130.5       128.9       127.1       125.2       123.2       121.1       118.9       116.5    
        114.0       111.4       108.6       105.7       102.7       99.55       96.30       92.94       89.45       85.82    
        82.06       78.16       74.09       69.84       65.41       60.81       56.01       51.00       45.80       40.40    
        34.82       29.11       23.29       17.40       11.52       5.716       0.000      1.0000E+30  1.0000E+30  1.0000E+30
  46   1.0000E+30  1.0000E+30  1.0000E+30  1.0000E+30  1.0000E+30  1.0000E+30  1.0000E+30  1.0000E+30  1.0000E+30  1.0000E+30
       1.0000E+30  1.0000E+30  1.0000E+30  1.0000E+30  1.0000E+30  1.0000E+30  1.0000E+30  1.0000E+30  1.0000E+30  1.0000E+30
       1.0000E+30  1.0000E+30  1.0000E+30  1.0000E+30  1.0000E+30  1.0000E+30  1.0000E+30  1.0000E+30  1.0000E+30  1.0000E+30
       1.0000E+30  1.0000E+30  1.0000E+30  1.0000E+30  1.0000E+30  1.0000E+30   158.6       158.3       157.7       157.0    
        156.0       155.2       154.4       153.6       152.8       151.9       150.8       149.8       148.7       147.7    
        146.5       145.4       144.3       143.2       142.0       140.8       139.6       138.4       137.0       135.6    
        134.2       132.7       131.0       129.4       127.6       125.7       123.7       121.5       119.3       116.9    
        114.4       111.8       109.0       106.1       103.1       99.96       96.71       93.34       89.86       86.26    
        82.54       78.66       74.61       70.38       65.95       61.33       56.49       51.44       46.18       40.73    
        35.11       29.36       23.49       17.54       11.60       5.748       0.000      1.0000E+30  1.0000E+30  1.0000E+30
  47   1.0000E+30  1.0000E+30  1.0000E+30  1.0000E+30  1.0000E+30  1.0000E+30  1.0000E+30  1.0000E+30  1.0000E+30  1.0000E+30
       1.0000E+30  1.0000E+30  1.0000E+30  1.0000E+30  1.0000E+30  1.0000E+30  1.0000E+30  1.0000E+30  1.0000E+30  1.0000E+30
       1.0000E+30  1.0000E+30  1.0000E+30  1.0000E+30  1.0000E+30  1.0000E+30  1.0000E+30  1.0000E+30  1.0000E+30  1.0000E+30
       1.0000E+30  1.0000E+30   161.3       161.0       160.5       159.9       159.2       158.5       157.9       157.2    
        156.4       155.6       154.8       154.0       153.1       152.3       151.3       150.2       149.2       148.2    
        147.1       146.0       144.9       143.8       142.6       141.4       140.2       138.9       137.6       136.2    
        134.7       133.2       131.5       129.8       128.0       126.1       124.1       121.9       119.7       117.3    
        114.8       112.2       109.4       106.5       103.5       100.4       97.09       93.71       90.22       86.67    
        83.00       79.18       75.17       70.95       66.52       61.88       57.01       51.88       46.54       41.02    
        35.33       29.48       23.46       17.34       11.28       5.442       0.000      1.0000E+30  1.0000E+30  1.0000E+30
  48   1.0000E+30  1.0000E+30  1.0000E+30  1.0000E+30  1.0000E+30  1.0000E+30  1.0000E+30  1.0000E+30  1.0000E+30  1.0000E+30
       1.0000E+30  1.0000E+30  1.0000E+30  1.0000E+30  1.0000E+30  1.0000E+30  1.0000E+30  1.0000E+30  1.0000E+30  1.0000E+30
       1.0000E+30  1.0000E+30  1.0000E+30  1.0000E+30  1.0000E+30  1.0000E+30  1.0000E+30  1.0000E+30   163.5       163.2    
        162.8       162.3       161.7       161.2       160.7       160.1       159.4       158.8       158.2       157.4    
        156.7       155.9       155.1       154.3       153.5       152.6       151.7       150.7       149.7       148.7    
        147.7       146.6       145.5       144.3       143.2       142.0       140.7       139.4       138.1       136.7    
        135.2       133.6       132.0       130.2       128.4       126.5       124.4       122.3       120.0       117.6    
        115.1       112.5       109.8       106.9       103.9       100.7       97.44       93.98       90.46       86.99    
        83.46       79.69       75.71       71.54       67.11       62.47       57.60       52.37       46.91       41.30    
        35.51       29.48       23.22       16.79       10.32       4.249       0.000      1.0000E+30  1.0000E+30  1.0000E+30
  49   1.0000E+30  1.0000E+30  1.0000E+30  1.0000E+30  1.0000E+30  1.0000E+30  1.0000E+30  1.0000E+30  1.0000E+30  1.0000E+30
       1.0000E+30  1.0000E+30  1.0000E+30  1.0000E+30  1.0000E+30  1.0000E+30  1.0000E+30  1.0000E+30  1.0000E+30  1.0000E+30
       1.0000E+30  1.0000E+30  1.0000E+30  1.0000E+30  1.0000E+30   164.8       164.6       164.3       163.8       163.4    
        163.0       162.5       161.9       161.4       160.9       160.3       159.6       159.0       158.4       157.7    
        157.0       156.2       155.4       154.6       153.8       153.0       152.1       151.1       150.2       149.2    
        148.1       147.1       146.0       144.9       143.7       142.5       141.2       139.9       138.6       137.2    
        135.7       134.1       132.4       130.6       128.8       126.8       124.8       122.6       120.3       117.9    
        115.4       112.9       110.1       107.3       104.3       101.1       97.81       94.34       90.91       87.51    
        83.95       80.19       76.26       72.14       67.62       62.82       57.89       52.65       47.16       41.53    
        35.68       29.47       22.90       15.94       8.473       0.000      1.0000E+30  1.0000E+30  1.0000E+30  1.0000E+30
  50   1.0000E+30  1.0000E+30  1.0000E+30  1.0000E+30  1.0000E+30  1.0000E+30  1.0000E+30  1.0000E+30  1.0000E+30  1.0000E+30
       1.0000E+30  1.0000E+30  1.0000E+30  1.0000E+30  1.0000E+30  1.0000E+30  1.0000E+30  1.0000E+30  1.0000E+30  1.0000E+30
       1.0000E+30  1.0000E+30  1.0000E+30  1.0000E+30   165.3       165.1       164.8       164.4       164.0       163.6    
        163.1       162.6       162.1       161.6       161.0       160.5       159.9       159.2       158.6       157.9    
        157.2       156.5       155.7       154.9       154.1       153.3       152.4       151.5       150.6       149.6    
        148.6       147.5       146.5       145.3       144.2       143.0       141.7       140.4       139.0       137.6    
        136.1       134.5       132.8       131.0       129.2       127.2       125.1       122.9       120.6       118.2    
        115.7       113.2       110.5       107.6       104.6       101.6       98.39       95.08       91.66       88.17    
        84.49       80.66       76.67       72.47       67.97       63.30       58.48       53.25       47.56       41.65    
        35.58       29.13       22.32       15.24       7.819       0.000      1.0000E+30  1.0000E+30  1.0000E+30  1.0000E+30
  51   1.0000E+30  1.0000E+30  1.0000E+30  1.0000E+30  1.0000E+30  1.0000E+30  1.0000E+30  1.0000E+30  1.0000E+30  1.0000E+30
       1.0000E+30  1.0000E+30  1.0000E+30  1.0000E+30  1.0000E+30  1.0000E+30  1.0000E+30  1.0000E+30  1.0000E+30  1.0000E+30
       1.0000E+30  1.0000E+30   166.3       166.0       165.7       165.3       165.0       164.6       164.2       163.8    
        163.3       162.8       162.3       161.8       161.2       160.6       160.0       159.4       158.8       158.1    
        157.4       156.7       156.0       155.2       154.4       153.6       152.7       151.8       150.9       149.9    
        149.0       147.9       146.9       145.8       144.6       143.4       142.1       140.8       139.4       138.0    
        136.5       134.9       133.2       131.4       129.5       127.6       125.4       123.2       120.8       118.5    
        116.1       113.6       110.9       108.0       105.1       102.0       98.85       95.55       92.19       88.74    
        85.08       81.22       77.19       72.93       68.43       63.72       58.75       53.59       48.09       41.90    
        35.34       28.70       21.92       14.87       7.555       0.000      1.0000E+30  1.0000E+30  1.0000E+30  1.0000E+30
  52   1.0000E+30  1.0000E+30  1.0000E+30  1.0000E+30  1.0000E+30  1.0000E+30  1.0000E+30  1.0000E+30  1.0000E+30  1.0000E+30
       1.0000E+30  1.0000E+30  1.0000E+30  1.0000E+30  1.0000E+30  1.0000E+30  1.0000E+30  1.0000E+30  1.0000E+30   167.3    
        167.2       166.9       166.5       166.2       165.9       165.5       165.1       164.8       164.3       163.9    
        163.4       162.9       162.4       161.9       161.3       160.8       160.2       159.6       158.9       158.3    
        157.6       156.9       156.2       155.4       154.6       153.8       153.0       152.1       151.2       150.3    
        149.3       148.3       147.2       146.1       145.0       143.8       142.5       141.2       139.8       138.4    
        136.8       135.2       133.6       131.8       129.9       127.9       125.8       123.6       121.2       118.9    
        116.5       114.1       111.4       108.5       105.5       102.5       99.27       96.00       92.67       89.23    
        85.62       81.74       77.66       73.41       68.93       64.19       59.14       53.83       48.09       41.65    
        34.87       28.32       21.81       14.86       7.527       0.000      1.0000E+30  1.0000E+30  1.0000E+30  1.0000E+30
  53   1.0000E+30  1.0000E+30  1.0000E+30  1.0000E+30  1.0000E+30  1.0000E+30  1.0000E+30  1.0000E+30  1.0000E+30  1.0000E+30
       1.0000E+30  1.0000E+30  1.0000E+30  1.0000E+30  1.0000E+30  1.0000E+30  1.0000E+30  1.0000E+30   167.6       167.4    
        167.2       167.0       166.7       166.4       166.0       165.7       165.3       164.9       164.4       164.0    
        163.5       163.0       162.5       161.9       161.4       160.8       160.2       159.6       159.0       158.4    
        157.7       157.0       156.3       155.6       154.8       154.0       153.2       152.3       151.5       150.5    
        149.5       148.5       147.5       146.4       145.3       144.1       142.9       141.5       140.2       138.7    
        137.2       135.6       133.9       132.1       130.2       128.2       126.2       123.9       121.6       119.4    
        117.0       114.6       112.0       109.1       106.1       103.0       99.78       96.49       93.15       89.67    
        86.03       82.19       78.13       73.90       69.45       64.64       59.40       53.83       47.88       41.51    
        34.87       28.25       21.52       14.52       7.333       0.000      1.0000E+30  1.0000E+30  1.0000E+30  1.0000E+30
  54   1.0000E+30  1.0000E+30  1.0000E+30  1.0000E+30  1.0000E+30  1.0000E+30  1.0000E+30  1.0000E+30  1.0000E+30  1.0000E+30
       1.0000E+30  1.0000E+30  1.0000E+30  1.0000E+30  1.0000E+30  1.0000E+30  1.0000E+30   167.9       167.7       167.6    
        167.4       167.1       166.8       166.5       166.2       165.8       165.4       165.0       164.5       164.0    
        163.5       163.0       162.5       161.9       161.4       160.8       160.2       159.6       159.0       158.4    
        157.8       157.1       156.4       155.7       154.9       154.1       153.3       152.5       151.6       150.7    
        149.8       148.8       147.8       146.7       145.6       144.4       143.2       141.9       140.5       139.0    
        137.5       135.9       134.2       132.4       130.6       128.6       126.6       124.4       122.2       119.9    
        117.5       115.2       112.6       109.7       106.7       103.6       100.4       97.10       93.61       90.09    
        86.49       82.70       78.60       74.19       69.59       64.72       59.46       53.80       47.76       41.41    
        34.87       28.19       21.36       14.33       7.203       0.000      1.0000E+30  1.0000E+30  1.0000E+30  1.0000E+30
  55   1.0000E+30  1.0000E+30  1.0000E+30  1.0000E+30  1.0000E+30  1.0000E+30  1.0000E+30  1.0000E+30  1.0000E+30  1.0000E+30
       1.0000E+30  1.0000E+30  1.0000E+30  1.0000E+30  1.0000E+30  1.0000E+30   168.2       168.1       167.9       167.7    
        167.5       167.2       166.9       166.6       166.3       165.9       165.5       165.0       164.6       164.1    
        163.6       163.0       162.5       161.9       161.3       160.8       160.2       159.6       159.0       158.4    
        157.8       157.1       156.4       155.7       155.0       154.2       153.4       152.6       151.8       150.9    
        149.9       149.0       148.0       146.9       145.8       144.6       143.4       142.1       140.8       139.3    
        137.8       136.2       134.5       132.7       130.9       128.9       127.0       125.0       122.9       120.6    
        118.1       115.7       113.1       110.3       107.4       104.2       101.0       97.67       94.20       90.60    
        86.91       83.05       78.90       74.45       69.70       64.65       59.31       53.67       47.69       41.39    
        34.87       28.18       21.31       14.27       7.162       0.000      1.0000E+30  1.0000E+30  1.0000E+30  1.0000E+30
  56   1.0000E+30  1.0000E+30  1.0000E+30  1.0000E+30  1.0000E+30  1.0000E+30  1.0000E+30  1.0000E+30  1.0000E+30  1.0000E+30
       1.0000E+30  1.0000E+30  1.0000E+30  1.0000E+30   168.7       168.6       168.4       168.2       168.0       167.8    
        167.6       167.3       167.0       166.7       166.4       166.0       165.6       165.1       164.6       164.1    
        163.5       163.0       162.4       161.8       161.2       160.7       160.1       159.5       158.9       158.3    
        157.7       157.1       156.4       155.7       155.0       154.2       153.5       152.7       151.9       151.0    
        150.1       149.1       148.1       147.1       146.0       144.9       143.7       142.4       141.0       139.6    
        138.1       136.5       134.9       133.1       131.2       129.3       127.4       125.5       123.4       121.2    
        118.8       116.3       113.7       110.9       108.0       104.9       101.6       98.23       94.74       91.10    
        87.31       83.33       79.11       74.61       69.77       64.55       59.13       53.63       47.78       41.49    
        34.94       28.23       21.34       14.29       7.168       0.000      1.0000E+30  1.0000E+30  1.0000E+30  1.0000E+30
  57   1.0000E+30  1.0000E+30  1.0000E+30  1.0000E+30  1.0000E+30  1.0000E+30  1.0000E+30  1.0000E+30  1.0000E+30  1.0000E+30
       1.0000E+30  1.0000E+30   169.1       169.0       168.9       168.7       168.5       168.3       168.1       167.9    
        167.7       167.4       167.1       166.8       166.5       166.1       165.6       165.1       164.6       164.1    
        163.5       162.9       162.2       161.6       161.0       160.5       159.9       159.4       158.8       158.2    
        157.6       157.0       156.3       155.6       154.9       154.2       153.5       152.7       151.9       151.0    
        150.2       149.2       148.3       147.2       146.2       145.0       143.9       142.6       141.3       139.9    
        138.4       136.9       135.2       133.5       131.7       129.8       128.0       125.9       123.8       121.7    
        119.4       116.9       114.2       111.4       108.5       105.4       102.1       98.74       95.20       91.52    
        87.67       83.64       79.37       74.78       69.83       64.63       59.25       53.67       47.76       41.53    
        35.04       28.31       21.39       14.32       7.181       0.000      1.0000E+30  1.0000E+30  1.0000E+30  1.0000E+30
  58   1.0000E+30  1.0000E+30  1.0000E+30  1.0000E+30  1.0000E+30  1.0000E+30  1.0000E+30  1.0000E+30  1.0000E+30   169.4    
        169.3       169.3       169.2       169.1       168.9       168.8       168.6       168.4       168.2       168.0    
        167.7       167.5       167.2       166.9       166.6       166.2       165.7       165.2       164.6       164.1    
        163.4       162.8       161.9       161.3       160.7       160.2       159.7       159.2       158.6       158.0    
        157.4       156.8       156.2       155.5       154.8       154.1       153.4       152.7       151.9       151.1    
        150.2       149.3       148.3       147.3       146.3       145.2       144.1       142.8       141.5       140.1    
        138.7       137.1       135.6       133.9       132.2       130.4       128.5       126.5       124.4       122.2    
        119.9       117.4       114.7       111.9       108.9       105.8       102.6       99.16       95.59       91.87    
[...]
        119.4       118.3       117.0       115.5       114.0       112.3       110.7       109.0       107.3       105.5    
        103.2       101.8      1.0000E+30  1.0000E+30  1.0000E+30  1.0000E+30  1.0000E+30  1.0000E+30  1.0000E+30  1.0000E+30
       1.0000E+30  1.0000E+30  1.0000E+30  1.0000E+30  1.0000E+30  1.0000E+30  1.0000E+30  1.0000E+30  1.0000E+30  1.0000E+30
  87   1.0000E+30  1.0000E+30  1.0000E+30  1.0000E+30  1.0000E+30  1.0000E+30  1.0000E+30  1.0000E+30  1.0000E+30  1.0000E+30
       1.0000E+30  1.0000E+30  1.0000E+30  1.0000E+30  1.0000E+30  1.0000E+30  1.0000E+30  1.0000E+30  1.0000E+30  1.0000E+30
       1.0000E+30  1.0000E+30  1.0000E+30  1.0000E+30  1.0000E+30  1.0000E+30  1.0000E+30  1.0000E+30  1.0000E+30  1.0000E+30
       1.0000E+30  1.0000E+30  1.0000E+30  1.0000E+30  1.0000E+30  1.0000E+30  1.0000E+30  1.0000E+30  1.0000E+30  1.0000E+30
       1.0000E+30  1.0000E+30   152.9       152.8       152.6       152.5       152.3       152.1       152.0       151.7    
        151.5       151.3       151.0       150.7       150.2       149.7      1.0000E+30  1.0000E+30  1.0000E+30  1.0000E+30
       1.0000E+30  1.0000E+30  1.0000E+30  1.0000E+30  1.0000E+30  1.0000E+30  1.0000E+30  1.0000E+30  1.0000E+30   119.5    
        118.9       118.0       116.8       115.5       114.0       112.4       110.8       109.4       108.1       107.1    
       1.0000E+30  1.0000E+30  1.0000E+30  1.0000E+30  1.0000E+30  1.0000E+30  1.0000E+30  1.0000E+30  1.0000E+30  1.0000E+30
       1.0000E+30  1.0000E+30  1.0000E+30  1.0000E+30  1.0000E+30  1.0000E+30  1.0000E+30  1.0000E+30  1.0000E+30  1.0000E+30
  88   1.0000E+30  1.0000E+30  1.0000E+30  1.0000E+30  1.0000E+30  1.0000E+30  1.0000E+30  1.0000E+30  1.0000E+30  1.0000E+30
       1.0000E+30  1.0000E+30  1.0000E+30  1.0000E+30  1.0000E+30  1.0000E+30  1.0000E+30  1.0000E+30  1.0000E+30  1.0000E+30
       1.0000E+30  1.0000E+30  1.0000E+30  1.0000E+30  1.0000E+30  1.0000E+30  1.0000E+30  1.0000E+30  1.0000E+30  1.0000E+30
       1.0000E+30  1.0000E+30  1.0000E+30  1.0000E+30  1.0000E+30  1.0000E+30  1.0000E+30  1.0000E+30  1.0000E+30  1.0000E+30
        153.3       153.2       153.1       153.0       152.9       152.7       152.6       152.4       152.3       152.1    
        151.9       151.8       151.6       151.4       151.2      1.0000E+30  1.0000E+30  1.0000E+30  1.0000E+30  1.0000E+30
       1.0000E+30  1.0000E+30  1.0000E+30  1.0000E+30  1.0000E+30  1.0000E+30  1.0000E+30  1.0000E+30  1.0000E+30  1.0000E+30
       1.0000E+30  1.0000E+30  1.0000E+30  1.0000E+30  1.0000E+30  1.0000E+30  1.0000E+30  1.0000E+30  1.0000E+30  1.0000E+30
       1.0000E+30  1.0000E+30  1.0000E+30  1.0000E+30  1.0000E+30  1.0000E+30  1.0000E+30  1.0000E+30  1.0000E+30  1.0000E+30
       1.0000E+30  1.0000E+30  1.0000E+30  1.0000E+30  1.0000E+30  1.0000E+30  1.0000E+30  1.0000E+30  1.0000E+30  1.0000E+30
  89   1.0000E+30  1.0000E+30  1.0000E+30  1.0000E+30  1.0000E+30  1.0000E+30  1.0000E+30  1.0000E+30  1.0000E+30  1.0000E+30
       1.0000E+30  1.0000E+30  1.0000E+30  1.0000E+30  1.0000E+30  1.0000E+30  1.0000E+30  1.0000E+30  1.0000E+30  1.0000E+30
       1.0000E+30  1.0000E+30  1.0000E+30  1.0000E+30  1.0000E+30  1.0000E+30  1.0000E+30  1.0000E+30  1.0000E+30  1.0000E+30
       1.0000E+30  1.0000E+30  1.0000E+30  1.0000E+30  1.0000E+30  1.0000E+30  1.0000E+30  1.0000E+30  1.0000E+30   153.4    
        153.4       153.3       153.2       153.1       153.0       152.9       152.8       152.7       152.6       152.5    
        152.3       152.2       152.0       151.9       151.8      1.0000E+30  1.0000E+30  1.0000E+30  1.0000E+30  1.0000E+30
       1.0000E+30  1.0000E+30  1.0000E+30  1.0000E+30  1.0000E+30  1.0000E+30  1.0000E+30  1.0000E+30  1.0000E+30  1.0000E+30
       1.0000E+30  1.0000E+30  1.0000E+30  1.0000E+30  1.0000E+30  1.0000E+30  1.0000E+30  1.0000E+30  1.0000E+30  1.0000E+30
       1.0000E+30  1.0000E+30  1.0000E+30  1.0000E+30  1.0000E+30  1.0000E+30  1.0000E+30  1.0000E+30  1.0000E+30  1.0000E+30
       1.0000E+30  1.0000E+30  1.0000E+30  1.0000E+30  1.0000E+30  1.0000E+30  1.0000E+30  1.0000E+30  1.0000E+30  1.0000E+30
  90   1.0000E+30  1.0000E+30  1.0000E+30  1.0000E+30  1.0000E+30  1.0000E+30  1.0000E+30  1.0000E+30  1.0000E+30  1.0000E+30
       1.0000E+30  1.0000E+30  1.0000E+30  1.0000E+30  1.0000E+30  1.0000E+30  1.0000E+30  1.0000E+30  1.0000E+30  1.0000E+30
       1.0000E+30  1.0000E+30  1.0000E+30  1.0000E+30  1.0000E+30  1.0000E+30  1.0000E+30  1.0000E+30  1.0000E+30  1.0000E+30
       1.0000E+30  1.0000E+30  1.0000E+30  1.0000E+30  1.0000E+30  1.0000E+30  1.0000E+30  1.0000E+30   153.5       153.4    
        153.4       153.4       153.3       153.3       153.2       153.1       153.0       152.9       152.8       152.7    
        152.6       152.5       152.4       152.3       152.2      1.0000E+30  1.0000E+30  1.0000E+30  1.0000E+30  1.0000E+30
       1.0000E+30  1.0000E+30  1.0000E+30  1.0000E+30  1.0000E+30  1.0000E+30  1.0000E+30  1.0000E+30  1.0000E+30  1.0000E+30
       1.0000E+30  1.0000E+30  1.0000E+30  1.0000E+30  1.0000E+30  1.0000E+30  1.0000E+30  1.0000E+30  1.0000E+30  1.0000E+30
       1.0000E+30  1.0000E+30  1.0000E+30  1.0000E+30  1.0000E+30  1.0000E+30  1.0000E+30  1.0000E+30  1.0000E+30  1.0000E+30
       1.0000E+30  1.0000E+30  1.0000E+30  1.0000E+30  1.0000E+30  1.0000E+30  1.0000E+30  1.0000E+30  1.0000E+30  1.0000E+30
  91   1.0000E+30  1.0000E+30  1.0000E+30  1.0000E+30  1.0000E+30  1.0000E+30  1.0000E+30  1.0000E+30  1.0000E+30  1.0000E+30
       1.0000E+30  1.0000E+30  1.0000E+30  1.0000E+30  1.0000E+30  1.0000E+30  1.0000E+30  1.0000E+30  1.0000E+30  1.0000E+30
       1.0000E+30  1.0000E+30  1.0000E+30  1.0000E+30  1.0000E+30  1.0000E+30  1.0000E+30  1.0000E+30  1.0000E+30  1.0000E+30
       1.0000E+30  1.0000E+30  1.0000E+30  1.0000E+30  1.0000E+30  1.0000E+30  1.0000E+30  1.0000E+30  1.0000E+30   153.5    
       1.0000E+30  1.0000E+30   153.4       153.4       153.4       153.3       153.2       153.1       153.0       152.9    
        152.8       152.7       152.7       152.6       152.4      1.0000E+30  1.0000E+30  1.0000E+30  1.0000E+30  1.0000E+30
       1.0000E+30  1.0000E+30  1.0000E+30  1.0000E+30  1.0000E+30  1.0000E+30  1.0000E+30  1.0000E+30  1.0000E+30  1.0000E+30
       1.0000E+30  1.0000E+30  1.0000E+30  1.0000E+30  1.0000E+30  1.0000E+30  1.0000E+30  1.0000E+30  1.0000E+30  1.0000E+30
       1.0000E+30  1.0000E+30  1.0000E+30  1.0000E+30  1.0000E+30  1.0000E+30  1.0000E+30  1.0000E+30  1.0000E+30  1.0000E+30
       1.0000E+30  1.0000E+30  1.0000E+30  1.0000E+30  1.0000E+30  1.0000E+30  1.0000E+30  1.0000E+30  1.0000E+30  1.0000E+30
  92   1.0000E+30  1.0000E+30  1.0000E+30  1.0000E+30  1.0000E+30  1.0000E+30  1.0000E+30  1.0000E+30  1.0000E+30  1.0000E+30
       1.0000E+30  1.0000E+30  1.0000E+30  1.0000E+30  1.0000E+30  1.0000E+30  1.0000E+30  1.0000E+30  1.0000E+30  1.0000E+30
       1.0000E+30  1.0000E+30  1.0000E+30  1.0000E+30  1.0000E+30  1.0000E+30  1.0000E+30  1.0000E+30  1.0000E+30  1.0000E+30
       1.0000E+30  1.0000E+30  1.0000E+30  1.0000E+30  1.0000E+30  1.0000E+30  1.0000E+30  1.0000E+30  1.0000E+30  1.0000E+30
       1.0000E+30  1.0000E+30   153.5       153.5       153.5       153.5      1.0000E+30   153.1       153.1       153.1    
        153.0       152.9       152.8       152.8      1.0000E+30  1.0000E+30  1.0000E+30  1.0000E+30  1.0000E+30  1.0000E+30
       1.0000E+30  1.0000E+30  1.0000E+30  1.0000E+30  1.0000E+30  1.0000E+30  1.0000E+30  1.0000E+30  1.0000E+30  1.0000E+30
       1.0000E+30  1.0000E+30  1.0000E+30  1.0000E+30  1.0000E+30  1.0000E+30  1.0000E+30  1.0000E+30  1.0000E+30  1.0000E+30
       1.0000E+30  1.0000E+30  1.0000E+30  1.0000E+30  1.0000E+30  1.0000E+30  1.0000E+30  1.0000E+30  1.0000E+30  1.0000E+30
       1.0000E+30  1.0000E+30  1.0000E+30  1.0000E+30  1.0000E+30  1.0000E+30  1.0000E+30  1.0000E+30  1.0000E+30  1.0000E+30
  93   1.0000E+30  1.0000E+30  1.0000E+30  1.0000E+30  1.0000E+30  1.0000E+30  1.0000E+30  1.0000E+30  1.0000E+30  1.0000E+30
       1.0000E+30  1.0000E+30  1.0000E+30  1.0000E+30  1.0000E+30  1.0000E+30  1.0000E+30  1.0000E+30  1.0000E+30  1.0000E+30
       1.0000E+30  1.0000E+30  1.0000E+30  1.0000E+30  1.0000E+30  1.0000E+30  1.0000E+30  1.0000E+30  1.0000E+30  1.0000E+30
       1.0000E+30  1.0000E+30  1.0000E+30  1.0000E+30  1.0000E+30  1.0000E+30  1.0000E+30  1.0000E+30  1.0000E+30  1.0000E+30
       1.0000E+30  1.0000E+30  1.0000E+30   153.6       153.6       153.6      1.0000E+30   153.2       153.2       153.2    
        153.1       153.1       153.0      1.0000E+30  1.0000E+30  1.0000E+30  1.0000E+30  1.0000E+30  1.0000E+30  1.0000E+30
       1.0000E+30  1.0000E+30  1.0000E+30  1.0000E+30  1.0000E+30  1.0000E+30  1.0000E+30  1.0000E+30  1.0000E+30  1.0000E+30
       1.0000E+30  1.0000E+30  1.0000E+30  1.0000E+30  1.0000E+30  1.0000E+30  1.0000E+30  1.0000E+30  1.0000E+30  1.0000E+30
       1.0000E+30  1.0000E+30  1.0000E+30  1.0000E+30  1.0000E+30  1.0000E+30  1.0000E+30  1.0000E+30  1.0000E+30  1.0000E+30
       1.0000E+30  1.0000E+30  1.0000E+30  1.0000E+30  1.0000E+30  1.0000E+30  1.0000E+30  1.0000E+30  1.0000E+30  1.0000E+30
  94   1.0000E+30  1.0000E+30  1.0000E+30  1.0000E+30  1.0000E+30  1.0000E+30  1.0000E+30  1.0000E+30  1.0000E+30  1.0000E+30
       1.0000E+30  1.0000E+30  1.0000E+30  1.0000E+30  1.0000E+30  1.0000E+30  1.0000E+30  1.0000E+30  1.0000E+30  1.0000E+30
       1.0000E+30  1.0000E+30  1.0000E+30  1.0000E+30  1.0000E+30  1.0000E+30  1.0000E+30  1.0000E+30  1.0000E+30  1.0000E+30
       1.0000E+30  1.0000E+30  1.0000E+30  1.0000E+30  1.0000E+30  1.0000E+30  1.0000E+30  1.0000E+30  1.0000E+30  1.0000E+30
       1.0000E+30  1.0000E+30  1.0000E+30  1.0000E+30   153.6       153.6      1.0000E+30   153.3       153.2       153.2    
        153.2       153.1      1.0000E+30  1.0000E+30  1.0000E+30  1.0000E+30  1.0000E+30  1.0000E+30  1.0000E+30  1.0000E+30
       1.0000E+30  1.0000E+30  1.0000E+30  1.0000E+30  1.0000E+30  1.0000E+30  1.0000E+30  1.0000E+30  1.0000E+30  1.0000E+30
       1.0000E+30  1.0000E+30  1.0000E+30  1.0000E+30  1.0000E+30  1.0000E+30  1.0000E+30  1.0000E+30  1.0000E+30  1.0000E+30
       1.0000E+30  1.0000E+30  1.0000E+30  1.0000E+30  1.0000E+30  1.0000E+30  1.0000E+30  1.0000E+30  1.0000E+30  1.0000E+30
       1.0000E+30  1.0000E+30  1.0000E+30  1.0000E+30  1.0000E+30  1.0000E+30  1.0000E+30  1.0000E+30  1.0000E+30  1.0000E+30
  95   1.0000E+30  1.0000E+30  1.0000E+30  1.0000E+30  1.0000E+30  1.0000E+30  1.0000E+30  1.0000E+30  1.0000E+30  1.0000E+30
       1.0000E+30  1.0000E+30  1.0000E+30  1.0000E+30  1.0000E+30  1.0000E+30  1.0000E+30  1.0000E+30  1.0000E+30  1.0000E+30
       1.0000E+30  1.0000E+30  1.0000E+30  1.0000E+30  1.0000E+30  1.0000E+30  1.0000E+30  1.0000E+30  1.0000E+30  1.0000E+30
       1.0000E+30  1.0000E+30  1.0000E+30  1.0000E+30  1.0000E+30  1.0000E+30  1.0000E+30  1.0000E+30  1.0000E+30  1.0000E+30
       1.0000E+30  1.0000E+30  1.0000E+30  1.0000E+30  1.0000E+30  1.0000E+30  1.0000E+30   153.3       153.3      1.0000E+30
       1.0000E+30  1.0000E+30  1.0000E+30  1.0000E+30  1.0000E+30  1.0000E+30  1.0000E+30  1.0000E+30  1.0000E+30  1.0000E+30
       1.0000E+30  1.0000E+30  1.0000E+30  1.0000E+30  1.0000E+30  1.0000E+30  1.0000E+30  1.0000E+30  1.0000E+30  1.0000E+30
       1.0000E+30  1.0000E+30  1.0000E+30  1.0000E+30  1.0000E+30  1.0000E+30  1.0000E+30  1.0000E+30  1.0000E+30  1.0000E+30
       1.0000E+30  1.0000E+30  1.0000E+30  1.0000E+30  1.0000E+30  1.0000E+30  1.0000E+30  1.0000E+30  1.0000E+30  1.0000E+30
       1.0000E+30  1.0000E+30  1.0000E+30  1.0000E+30  1.0000E+30  1.0000E+30  1.0000E+30  1.0000E+30  1.0000E+30  1.0000E+30
  96   1.0000E+30  1.0000E+30  1.0000E+30  1.0000E+30  1.0000E+30  1.0000E+30  1.0000E+30  1.0000E+30  1.0000E+30  1.0000E+30
       1.0000E+30  1.0000E+30  1.0000E+30  1.0000E+30  1.0000E+30  1.0000E+30  1.0000E+30  1.0000E+30  1.0000E+30  1.0000E+30
       1.0000E+30  1.0000E+30  1.0000E+30  1.0000E+30  1.0000E+30  1.0000E+30  1.0000E+30  1.0000E+30  1.0000E+30  1.0000E+30
       1.0000E+30  1.0000E+30  1.0000E+30  1.0000E+30  1.0000E+30  1.0000E+30  1.0000E+30  1.0000E+30  1.0000E+30  1.0000E+30
       1.0000E+30  1.0000E+30  1.0000E+30  1.0000E+30  1.0000E+30  1.0000E+30  1.0000E+30  1.0000E+30  1.0000E+30  1.0000E+30
       1.0000E+30  1.0000E+30  1.0000E+30  1.0000E+30  1.0000E+30  1.0000E+30  1.0000E+30  1.0000E+30  1.0000E+30  1.0000E+30
       1.0000E+30  1.0000E+30  1.0000E+30  1.0000E+30  1.0000E+30  1.0000E+30  1.0000E+30  1.0000E+30  1.0000E+30  1.0000E+30
       1.0000E+30  1.0000E+30  1.0000E+30  1.0000E+30  1.0000E+30  1.0000E+30  1.0000E+30  1.0000E+30  1.0000E+30  1.0000E+30
       1.0000E+30  1.0000E+30  1.0000E+30  1.0000E+30  1.0000E+30  1.0000E+30  1.0000E+30  1.0000E+30  1.0000E+30  1.0000E+30
       1.0000E+30  1.0000E+30  1.0000E+30  1.0000E+30  1.0000E+30  1.0000E+30  1.0000E+30  1.0000E+30  1.0000E+30  1.0000E+30
  97   1.0000E+30  1.0000E+30  1.0000E+30  1.0000E+30  1.0000E+30  1.0000E+30  1.0000E+30  1.0000E+30  1.0000E+30  1.0000E+30
       1.0000E+30  1.0000E+30  1.0000E+30  1.0000E+30  1.0000E+30  1.0000E+30  1.0000E+30  1.0000E+30  1.0000E+30  1.0000E+30
       1.0000E+30  1.0000E+30  1.0000E+30  1.0000E+30  1.0000E+30  1.0000E+30  1.0000E+30  1.0000E+30  1.0000E+30  1.0000E+30
       1.0000E+30  1.0000E+30  1.0000E+30  1.0000E+30  1.0000E+30  1.0000E+30  1.0000E+30  1.0000E+30  1.0000E+30  1.0000E+30
       1.0000E+30  1.0000E+30  1.0000E+30  1.0000E+30  1.0000E+30  1.0000E+30  1.0000E+30  1.0000E+30  1.0000E+30  1.0000E+30
       1.0000E+30  1.0000E+30  1.0000E+30  1.0000E+30  1.0000E+30  1.0000E+30  1.0000E+30  1.0000E+30  1.0000E+30  1.0000E+30
       1.0000E+30  1.0000E+30  1.0000E+30  1.0000E+30  1.0000E+30  1.0000E+30  1.0000E+30  1.0000E+30  1.0000E+30  1.0000E+30
       1.0000E+30  1.0000E+30  1.0000E+30  1.0000E+30  1.0000E+30  1.0000E+30  1.0000E+30  1.0000E+30  1.0000E+30  1.0000E+30
       1.0000E+30  1.0000E+30  1.0000E+30  1.0000E+30  1.0000E+30  1.0000E+30  1.0000E+30  1.0000E+30  1.0000E+30  1.0000E+30
       1.0000E+30  1.0000E+30  1.0000E+30  1.0000E+30  1.0000E+30  1.0000E+30  1.0000E+30  1.0000E+30  1.0000E+30  1.0000E+30
  98   1.0000E+30  1.0000E+30  1.0000E+30  1.0000E+30  1.0000E+30  1.0000E+30  1.0000E+30  1.0000E+30  1.0000E+30  1.0000E+30
       1.0000E+30  1.0000E+30  1.0000E+30  1.0000E+30  1.0000E+30  1.0000E+30  1.0000E+30  1.0000E+30  1.0000E+30  1.0000E+30
       1.0000E+30  1.0000E+30  1.0000E+30  1.0000E+30  1.0000E+30  1.0000E+30  1.0000E+30  1.0000E+30  1.0000E+30  1.0000E+30
       1.0000E+30  1.0000E+30  1.0000E+30  1.0000E+30  1.0000E+30  1.0000E+30  1.0000E+30  1.0000E+30  1.0000E+30  1.0000E+30
       1.0000E+30  1.0000E+30  1.0000E+30  1.0000E+30  1.0000E+30  1.0000E+30  1.0000E+30  1.0000E+30  1.0000E+30  1.0000E+30
       1.0000E+30  1.0000E+30  1.0000E+30  1.0000E+30  1.0000E+30  1.0000E+30  1.0000E+30  1.0000E+30  1.0000E+30  1.0000E+30
       1.0000E+30  1.0000E+30  1.0000E+30  1.0000E+30  1.0000E+30  1.0000E+30  1.0000E+30  1.0000E+30  1.0000E+30  1.0000E+30
       1.0000E+30  1.0000E+30  1.0000E+30  1.0000E+30  1.0000E+30  1.0000E+30  1.0000E+30  1.0000E+30  1.0000E+30  1.0000E+30
       1.0000E+30  1.0000E+30  1.0000E+30  1.0000E+30  1.0000E+30  1.0000E+30  1.0000E+30  1.0000E+30  1.0000E+30  1.0000E+30
       1.0000E+30  1.0000E+30  1.0000E+30  1.0000E+30  1.0000E+30  1.0000E+30  1.0000E+30  1.0000E+30  1.0000E+30  1.0000E+30
  99   1.0000E+30  1.0000E+30  1.0000E+30  1.0000E+30  1.0000E+30  1.0000E+30  1.0000E+30  1.0000E+30  1.0000E+30  1.0000E+30
       1.0000E+30  1.0000E+30  1.0000E+30  1.0000E+30  1.0000E+30  1.0000E+30  1.0000E+30  1.0000E+30  1.0000E+30  1.0000E+30
       1.0000E+30  1.0000E+30  1.0000E+30  1.0000E+30  1.0000E+30  1.0000E+30  1.0000E+30  1.0000E+30  1.0000E+30  1.0000E+30
       1.0000E+30  1.0000E+30  1.0000E+30  1.0000E+30  1.0000E+30  1.0000E+30  1.0000E+30  1.0000E+30  1.0000E+30  1.0000E+30
       1.0000E+30  1.0000E+30  1.0000E+30  1.0000E+30  1.0000E+30  1.0000E+30  1.0000E+30  1.0000E+30  1.0000E+30  1.0000E+30
       1.0000E+30  1.0000E+30  1.0000E+30  1.0000E+30  1.0000E+30  1.0000E+30  1.0000E+30  1.0000E+30  1.0000E+30  1.0000E+30
       1.0000E+30  1.0000E+30  1.0000E+30  1.0000E+30  1.0000E+30  1.0000E+30  1.0000E+30  1.0000E+30  1.0000E+30  1.0000E+30
       1.0000E+30  1.0000E+30  1.0000E+30  1.0000E+30  1.0000E+30  1.0000E+30  1.0000E+30  1.0000E+30  1.0000E+30  1.0000E+30
       1.0000E+30  1.0000E+30  1.0000E+30  1.0000E+30  1.0000E+30  1.0000E+30  1.0000E+30  1.0000E+30  1.0000E+30  1.0000E+30
       1.0000E+30  1.0000E+30  1.0000E+30  1.0000E+30  1.0000E+30  1.0000E+30  1.0000E+30  1.0000E+30  1.0000E+30  1.0000E+30
 100   1.0000E+30  1.0000E+30  1.0000E+30  1.0000E+30  1.0000E+30  1.0000E+30  1.0000E+30  1.0000E+30  1.0000E+30  1.0000E+30
       1.0000E+30  1.0000E+30  1.0000E+30  1.0000E+30  1.0000E+30  1.0000E+30  1.0000E+30  1.0000E+30  1.0000E+30  1.0000E+30
       1.0000E+30  1.0000E+30  1.0000E+30  1.0000E+30  1.0000E+30  1.0000E+30  1.0000E+30  1.0000E+30  1.0000E+30  1.0000E+30
       1.0000E+30  1.0000E+30  1.0000E+30  1.0000E+30  1.0000E+30  1.0000E+30  1.0000E+30  1.0000E+30  1.0000E+30  1.0000E+30
       1.0000E+30  1.0000E+30  1.0000E+30  1.0000E+30  1.0000E+30  1.0000E+30  1.0000E+30  1.0000E+30  1.0000E+30  1.0000E+30
       1.0000E+30  1.0000E+30  1.0000E+30  1.0000E+30  1.0000E+30  1.0000E+30  1.0000E+30  1.0000E+30  1.0000E+30  1.0000E+30
       1.0000E+30  1.0000E+30  1.0000E+30  1.0000E+30  1.0000E+30  1.0000E+30  1.0000E+30  1.0000E+30  1.0000E+30  1.0000E+30
       1.0000E+30  1.0000E+30  1.0000E+30  1.0000E+30  1.0000E+30  1.0000E+30  1.0000E+30  1.0000E+30  1.0000E+30  1.0000E+30
       1.0000E+30  1.0000E+30  1.0000E+30  1.0000E+30  1.0000E+30  1.0000E+30  1.0000E+30  1.0000E+30  1.0000E+30  1.0000E+30
       1.0000E+30  1.0000E+30  1.0000E+30  1.0000E+30  1.0000E+30  1.0000E+30  1.0000E+30  1.0000E+30  1.0000E+30  1.0000E+30

 HEAD WILL BE SAVED ON UNIT 1014 AT END OF TIME STEP    1, STRESS PERIOD    1


  VOLUME BUDGET FOR ENTIRE MODEL AT END OF TIME STEP    1, STRESS PERIOD   1
  ---------------------------------------------------------------------------------------------------

     CUMULATIVE VOLUME      L**3       RATES FOR THIS TIME STEP      L**3/T          PACKAGE NAME    
     ------------------                 ------------------------                     ----------------

           IN:                                      IN:
           ---                                      ---
                 RCH =           2.9572                   RCH =           2.9572     RCHA            
                 CHD =           0.0000                   CHD =           0.0000     CHD             

            TOTAL IN =           2.9572              TOTAL IN =           2.9572

          OUT:                                     OUT:
          ----                                     ----
                 RCH =           0.0000                   RCH =           0.0000     RCHA            
                 CHD =           2.9572                   CHD =           2.9572     CHD             

           TOTAL OUT =           2.9572             TOTAL OUT =           2.9572

            IN - OUT =       2.8772E-05              IN - OUT =       2.8772E-05

 PERCENT DISCREPANCY =           0.00     PERCENT DISCREPANCY =           0.00




         TIME SUMMARY AT END OF TIME STEP    1 IN STRESS PERIOD    1
                    SECONDS     MINUTES      HOURS       DAYS        YEARS
                    -----------------------------------------------------------
   TIME STEP LENGTH  86400.      1440.0      24.000      1.0000     2.73785E-03
 STRESS PERIOD TIME  86400.      1440.0      24.000      1.0000     2.73785E-03
         TOTAL TIME  86400.      1440.0      24.000      1.0000     2.73785E-03
