                                   MODFLOW 6
                U.S. GEOLOGICAL SURVEY MODULAR HYDROLOGIC MODEL
                          GROUNDWATER FLOW MODEL (GWF)
                            VERSION 6.0.4 03/13/2019

   MODFLOW 6 compiled Mar 21 2019 15:37:31 with IFORT compiler (ver. 19.0.0)

This software has been approved for release by the U.S. Geological 
Survey (USGS). Although the software has been subjected to rigorous 
review, the USGS reserves the right to update the software as needed 
pursuant to further analysis and review. No warranty, expressed or 
implied, is made by the USGS or the U.S. Government as to the 
functionality of the software and related material nor shall the 
fact of release constitute any such warranty. Furthermore, the 
software is released on condition that neither the USGS nor the U.S. 
Government shall be held liable for any damages resulting from its 
authorized or unauthorized use. Also refer to the USGS Water 
Resources Software User Rights Notice for complete use, copyright, 
and distribution information.


MODFLOW was compiled using uniform precision.
Precision of REAL variables: 15


 OPENED pest_2D_R.dis
 FILE TYPE:DIS6                   UNIT 1005   STATUS:OLD                 
 FORMAT:FORMATTED              ACCESS:SEQUENTIAL          
 ACTION:READ                


 OPENED pest_2D_R.ic
 FILE TYPE:IC6                    UNIT 1006   STATUS:OLD                 
 FORMAT:FORMATTED              ACCESS:SEQUENTIAL          
 ACTION:READ                


 OPENED pest_2D_R.oc
 FILE TYPE:OC6                    UNIT 1007   STATUS:OLD                 
 FORMAT:FORMATTED              ACCESS:SEQUENTIAL          
 ACTION:READ                


 OPENED pest_2D_R.obs
 FILE TYPE:OBS6                   UNIT 1008   STATUS:OLD                 
 FORMAT:FORMATTED              ACCESS:SEQUENTIAL          
 ACTION:READ                


 OPENED pest_2D_R.npf
 FILE TYPE:NPF6                   UNIT 1009   STATUS:OLD                 
 FORMAT:FORMATTED              ACCESS:SEQUENTIAL          
 ACTION:READ                


 OPENED pest_2D_R.rcha
 FILE TYPE:RCH6                   UNIT 1010   STATUS:OLD                 
 FORMAT:FORMATTED              ACCESS:SEQUENTIAL          
 ACTION:READ                


 OPENED p_ag.rch
 FILE TYPE:RCH6                   UNIT 1011   STATUS:OLD                 
 FORMAT:FORMATTED              ACCESS:SEQUENTIAL          
 ACTION:READ                


 OPENED irr.rch
 FILE TYPE:RCH6                   UNIT 1012   STATUS:OLD                 
 FORMAT:FORMATTED              ACCESS:SEQUENTIAL          
 ACTION:READ                


 OPENED wel.wel
 FILE TYPE:WEL6                   UNIT 1013   STATUS:OLD                 
 FORMAT:FORMATTED              ACCESS:SEQUENTIAL          
 ACTION:READ                


 OPENED Corb.wel
 FILE TYPE:WEL6                   UNIT 1014   STATUS:OLD                 
 FORMAT:FORMATTED              ACCESS:SEQUENTIAL          
 ACTION:READ                


 OPENED thuir.chd
 FILE TYPE:CHD6                   UNIT 1015   STATUS:OLD                 
 FORMAT:FORMATTED              ACCESS:SEQUENTIAL          
 ACTION:READ                


 OPENED sea.chd
 FILE TYPE:CHD6                   UNIT 1016   STATUS:OLD                 
 FORMAT:FORMATTED              ACCESS:SEQUENTIAL          
 ACTION:READ                


 OPENED eta.drn
 FILE TYPE:DRN6                   UNIT 1017   STATUS:OLD                 
 FORMAT:FORMATTED              ACCESS:SEQUENTIAL          
 ACTION:READ                


 OPENED agy.riv
 FILE TYPE:RIV6                   UNIT 1018   STATUS:OLD                 
 FORMAT:FORMATTED              ACCESS:SEQUENTIAL          
 ACTION:READ                


 OPENED Tet.riv
 FILE TYPE:RIV6                   UNIT 1019   STATUS:OLD                 
 FORMAT:FORMATTED              ACCESS:SEQUENTIAL          
 ACTION:READ                


 OPENED Rea.riv
 FILE TYPE:RIV6                   UNIT 1020   STATUS:OLD                 
 FORMAT:FORMATTED              ACCESS:SEQUENTIAL          
 ACTION:READ                


 OPENED Cant.riv
 FILE TYPE:RIV6                   UNIT 1021   STATUS:OLD                 
 FORMAT:FORMATTED              ACCESS:SEQUENTIAL          
 ACTION:READ                


 OPENED Tech.riv
 FILE TYPE:RIV6                   UNIT 1022   STATUS:OLD                 
 FORMAT:FORMATTED              ACCESS:SEQUENTIAL          
 ACTION:READ                


 OPENED Bol.riv
 FILE TYPE:RIV6                   UNIT 1023   STATUS:OLD                 
 FORMAT:FORMATTED              ACCESS:SEQUENTIAL          
 ACTION:READ                


 DIS -- STRUCTURED GRID DISCRETIZATION PACKAGE, VERSION 2 : 3/27/2014 - INPUT READ FROM UNIT 1005


 PROCESSING DISCRETIZATION OPTIONS
    XORIGIN SPECIFIED AS     664525.000000000    
    YORIGIN SPECIFIED AS     6152875.00000000    
 END OF DISCRETIZATION OPTIONS
 MODEL LENGTH UNIT IS UNDEFINED
 PROCESSING DISCRETIZATION DIMENSIONS
    NLAY =       1
    NROW =     182
    NCOL =     183
 END OF DISCRETIZATION DIMENSIONS
 PROCESSING GRIDDATA
 END PROCESSING GRIDDATA

 THE SPECIFIED IDOMAIN RESULTS IN A REDUCED NUMBER OF CELLS.
 NUMBER OF USER NODES:   33306
 NUMBER OF NODES IN SOLUTION:   17233



 NPF -- NODE PROPERTY FLOW PACKAGE, VERSION 1, 3/30/2015 INPUT READ FROM UNIT 1009


 PROCESSING NPF OPTIONS
    CELL-BY-CELL FLOW INFORMATION WILL BE SAVED TO BINARY FILE WHENEVER ICBCFL IS NOT ZERO.
 END OF NPF OPTIONS

 WEL   -- WEL PACKAGE, VERSION 8, 2/22/2014 INPUT READ FROM UNIT 1013

 PROCESSING WEL OPTIONS
    FLOWS WILL BE SAVED TO BUDGET FILE SPECIFIED IN OUTPUT CONTROL
 END OF WEL OPTIONS

 PROCESSING WEL DIMENSIONS
    MAXBOUND =     400
 END OF WEL DIMENSIONS

 WEL   -- WEL PACKAGE, VERSION 8, 2/22/2014 INPUT READ FROM UNIT 1014

 PROCESSING WEL OPTIONS
    FLOWS WILL BE SAVED TO BUDGET FILE SPECIFIED IN OUTPUT CONTROL
 END OF WEL OPTIONS

 PROCESSING WEL DIMENSIONS
    MAXBOUND =      49
 END OF WEL DIMENSIONS

 DRN   -- DRN PACKAGE, VERSION 8, 2/22/2014 INPUT READ FROM UNIT 1017

 PROCESSING DRN OPTIONS
    FLOWS WILL BE SAVED TO BUDGET FILE SPECIFIED IN OUTPUT CONTROL
 END OF DRN OPTIONS

 PROCESSING DRN DIMENSIONS
    MAXBOUND =     644
 END OF DRN DIMENSIONS

 RIV   -- RIV PACKAGE, VERSION 8, 2/22/2014 INPUT READ FROM UNIT 1018

 PROCESSING RIV OPTIONS
    FLOWS WILL BE SAVED TO BUDGET FILE SPECIFIED IN OUTPUT CONTROL
 END OF RIV OPTIONS

 PROCESSING RIV DIMENSIONS
    MAXBOUND =      86
 END OF RIV DIMENSIONS

 RIV   -- RIV PACKAGE, VERSION 8, 2/22/2014 INPUT READ FROM UNIT 1019

 PROCESSING RIV OPTIONS
    FLOWS WILL BE SAVED TO BUDGET FILE SPECIFIED IN OUTPUT CONTROL
 END OF RIV OPTIONS

 PROCESSING RIV DIMENSIONS
    MAXBOUND =     169
 END OF RIV DIMENSIONS

 RIV   -- RIV PACKAGE, VERSION 8, 2/22/2014 INPUT READ FROM UNIT 1020

 PROCESSING RIV OPTIONS
    FLOWS WILL BE SAVED TO BUDGET FILE SPECIFIED IN OUTPUT CONTROL
 END OF RIV OPTIONS

 PROCESSING RIV DIMENSIONS
    MAXBOUND =     130
 END OF RIV DIMENSIONS

 RIV   -- RIV PACKAGE, VERSION 8, 2/22/2014 INPUT READ FROM UNIT 1021

 PROCESSING RIV OPTIONS
    FLOWS WILL BE SAVED TO BUDGET FILE SPECIFIED IN OUTPUT CONTROL
 END OF RIV OPTIONS

 PROCESSING RIV DIMENSIONS
    MAXBOUND =      65
 END OF RIV DIMENSIONS

 RIV   -- RIV PACKAGE, VERSION 8, 2/22/2014 INPUT READ FROM UNIT 1022

 PROCESSING RIV OPTIONS
    FLOWS WILL BE SAVED TO BUDGET FILE SPECIFIED IN OUTPUT CONTROL
 END OF RIV OPTIONS

 PROCESSING RIV DIMENSIONS
    MAXBOUND =     105
 END OF RIV DIMENSIONS

 RIV   -- RIV PACKAGE, VERSION 8, 2/22/2014 INPUT READ FROM UNIT 1023

 PROCESSING RIV OPTIONS
    FLOWS WILL BE SAVED TO BUDGET FILE SPECIFIED IN OUTPUT CONTROL
 END OF RIV OPTIONS

 PROCESSING RIV DIMENSIONS
    MAXBOUND =      47
 END OF RIV DIMENSIONS

 RCH   -- RCH PACKAGE, VERSION 8, 2/22/2014 INPUT READ FROM UNIT 1010

 PROCESSING RCH OPTIONS
    RECHARGE INPUT WILL BE READ AS ARRAY(S).
    FLOWS WILL BE SAVED TO BUDGET FILE SPECIFIED IN OUTPUT CONTROL
 END OF RCH OPTIONS

 RCH   -- RCH PACKAGE, VERSION 8, 2/22/2014 INPUT READ FROM UNIT 1011

 PROCESSING RCH OPTIONS
    RECHARGE INPUT WILL BE READ AS ARRAY(S).
    FLOWS WILL BE SAVED TO BUDGET FILE SPECIFIED IN OUTPUT CONTROL
 END OF RCH OPTIONS

 RCH   -- RCH PACKAGE, VERSION 8, 2/22/2014 INPUT READ FROM UNIT 1012

 PROCESSING RCH OPTIONS
    RECHARGE INPUT WILL BE READ AS ARRAY(S).
    FLOWS WILL BE SAVED TO BUDGET FILE SPECIFIED IN OUTPUT CONTROL
 END OF RCH OPTIONS

 CHD   -- CHD PACKAGE, VERSION 8, 2/22/2014 INPUT READ FROM UNIT 1015

 PROCESSING CHD OPTIONS
    FLOWS WILL BE SAVED TO BUDGET FILE SPECIFIED IN OUTPUT CONTROL
 END OF CHD OPTIONS

 PROCESSING CHD DIMENSIONS
    MAXBOUND =      16
 END OF CHD DIMENSIONS

 CHD   -- CHD PACKAGE, VERSION 8, 2/22/2014 INPUT READ FROM UNIT 1016

 PROCESSING CHD OPTIONS
    FLOWS WILL BE SAVED TO BUDGET FILE SPECIFIED IN OUTPUT CONTROL
 END OF CHD OPTIONS

 PROCESSING CHD DIMENSIONS
    MAXBOUND =    7350
 END OF CHD DIMENSIONS

 IC -- INITIAL CONDITIONS PACKAGE, VERSION 8, 3/28/2015 INPUT READ FROM UNIT 1006
 PROCESSING GRIDDATA
 END PROCESSING GRIDDATA
 PROCESSING GRIDDATA

                ICELLTYPE = 0

 OPENED k.txt
 FILE TYPE:OPEN/CLOSE   UNIT 1025   STATUS:OLD                 
 FORMAT:FORMATTED              ACCESS:SEQUENTIAL          
 ACTION:READ                

 K33 not provided.  Assuming K33 = K.
 K22 not provided.  Assuming K22 = K.
 END PROCESSING GRIDDATA

The observation utility is active for "PEST_2D_R"

Processing observation options:

Text output number of digits of precision set to: 10
The PRINT_INPUT option has been specified.


Observations read from file "pest_2D_R.obs":
Name                                      Type                             Time         Location data
----------------------------------------  -------------------------------  -----------  --------------------------
0_50_94                                   Continuous HEAD                  All times    "1 51 95"
0_56_126                                  Continuous HEAD                  All times    "1 57 127"
0_57_83                                   Continuous HEAD                  All times    "1 58 84"
0_62_126                                  Continuous HEAD                  All times    "1 63 127"
0_63_94                                   Continuous HEAD                  All times    "1 64 95"
0_63_99                                   Continuous HEAD                  All times    "1 64 100"
0_63_117                                  Continuous HEAD                  All times    "1 64 118"
0_64_92                                   Continuous HEAD                  All times    "1 65 93"
0_64_96                                   Continuous HEAD                  All times    "1 65 97"
0_64_104                                  Continuous HEAD                  All times    "1 65 105"
0_64_111                                  Continuous HEAD                  All times    "1 65 112"
0_66_128                                  Continuous HEAD                  All times    "1 67 129"
0_67_110                                  Continuous HEAD                  All times    "1 68 111"
0_67_119                                  Continuous HEAD                  All times    "1 68 120"
0_69_104                                  Continuous HEAD                  All times    "1 70 105"
0_69_105                                  Continuous HEAD                  All times    "1 70 106"
0_69_116                                  Continuous HEAD                  All times    "1 70 117"
0_69_118                                  Continuous HEAD                  All times    "1 70 119"
0_70_73                                   Continuous HEAD                  All times    "1 71 74"
0_71_72                                   Continuous HEAD                  All times    "1 72 73"
0_73_83                                   Continuous HEAD                  All times    "1 74 84"
0_74_115                                  Continuous HEAD                  All times    "1 75 116"
0_75_124                                  Continuous HEAD                  All times    "1 76 125"
0_76_89                                   Continuous HEAD                  All times    "1 77 90"
0_79_66                                   Continuous HEAD                  All times    "1 80 67"
0_79_77                                   Continuous HEAD                  All times    "1 80 78"
0_80_103                                  Continuous HEAD                  All times    "1 81 104"
0_82_115                                  Continuous HEAD                  All times    "1 83 116"
0_83_67                                   Continuous HEAD                  All times    "1 84 68"
0_83_95                                   Continuous HEAD                  All times    "1 84 96"
0_83_106                                  Continuous HEAD                  All times    "1 84 107"
0_83_124                                  Continuous HEAD                  All times    "1 84 125"
0_84_94                                   Continuous HEAD                  All times    "1 85 95"
0_84_125                                  Continuous HEAD                  All times    "1 85 126"
0_84_127                                  Continuous HEAD                  All times    "1 85 128"
0_88_110                                  Continuous HEAD                  All times    "1 89 111"
0_91_101                                  Continuous HEAD                  All times    "1 92 102"
0_92_93                                   Continuous HEAD                  All times    "1 93 94"
0_93_114                                  Continuous HEAD                  All times    "1 94 115"
0_94_95                                   Continuous HEAD                  All times    "1 95 96"
0_94_103                                  Continuous HEAD                  All times    "1 95 104"
0_94_115                                  Continuous HEAD                  All times    "1 95 116"
0_95_75                                   Continuous HEAD                  All times    "1 96 76"
0_95_81                                   Continuous HEAD                  All times    "1 96 82"
0_95_95                                   Continuous HEAD                  All times    "1 96 96"
0_95_128                                  Continuous HEAD                  All times    "1 96 129"
0_98_43                                   Continuous HEAD                  All times    "1 99 44"
0_98_91                                   Continuous HEAD                  All times    "1 99 92"
0_99_44                                   Continuous HEAD                  All times    "1 100 45"
0_99_118                                  Continuous HEAD                  All times    "1 100 119"
0_100_51                                  Continuous HEAD                  All times    "1 101 52"
0_100_75                                  Continuous HEAD                  All times    "1 101 76"
0_101_53                                  Continuous HEAD                  All times    "1 102 54"
0_101_59                                  Continuous HEAD                  All times    "1 102 60"
0_102_22                                  Continuous HEAD                  All times    "1 103 23"
0_102_24                                  Continuous HEAD                  All times    "1 103 25"
0_102_28                                  Continuous HEAD                  All times    "1 103 29"
0_102_57                                  Continuous HEAD                  All times    "1 103 58"
0_103_32                                  Continuous HEAD                  All times    "1 104 33"
0_104_45                                  Continuous HEAD                  All times    "1 105 46"
0_104_74                                  Continuous HEAD                  All times    "1 105 75"
0_106_17                                  Continuous HEAD                  All times    "1 107 18"
0_106_58                                  Continuous HEAD                  All times    "1 107 59"
0_106_71                                  Continuous HEAD                  All times    "1 107 72"
0_108_24                                  Continuous HEAD                  All times    "1 109 25"
0_108_42                                  Continuous HEAD                  All times    "1 109 43"
0_108_43                                  Continuous HEAD                  All times    "1 109 44"
0_109_12                                  Continuous HEAD                  All times    "1 110 13"
0_110_22                                  Continuous HEAD                  All times    "1 111 23"
0_111_42                                  Continuous HEAD                  All times    "1 112 43"
0_112_16                                  Continuous HEAD                  All times    "1 113 17"
0_112_61                                  Continuous HEAD                  All times    "1 113 62"
0_113_102                                 Continuous HEAD                  All times    "1 114 103"
0_114_6                                   Continuous HEAD                  All times    "1 115 7"
0_114_13                                  Continuous HEAD                  All times    "1 115 14"
0_114_114                                 Continuous HEAD                  All times    "1 115 115"
0_115_66                                  Continuous HEAD                  All times    "1 116 67"
0_116_1                                   Continuous HEAD                  All times    "1 117 2"
0_116_59                                  Continuous HEAD                  All times    "1 117 60"
0_116_60                                  Continuous HEAD                  All times    "1 117 61"
0_116_100                                 Continuous HEAD                  All times    "1 117 101"
0_119_43                                  Continuous HEAD                  All times    "1 120 44"
0_120_112                                 Continuous HEAD                  All times    "1 121 113"
0_120_123                                 Continuous HEAD                  All times    "1 121 124"
0_121_82                                  Continuous HEAD                  All times    "1 122 83"
0_121_104                                 Continuous HEAD                  All times    "1 122 105"
0_122_94                                  Continuous HEAD                  All times    "1 123 95"
0_125_75                                  Continuous HEAD                  All times    "1 126 76"
0_129_69                                  Continuous HEAD                  All times    "1 130 70"
0_129_86                                  Continuous HEAD                  All times    "1 130 87"
0_129_100                                 Continuous HEAD                  All times    "1 130 101"
0_131_65                                  Continuous HEAD                  All times    "1 132 66"
0_132_50                                  Continuous HEAD                  All times    "1 133 51"
0_133_56                                  Continuous HEAD                  All times    "1 134 57"
0_135_119                                 Continuous HEAD                  All times    "1 136 120"
0_136_70                                  Continuous HEAD                  All times    "1 137 71"
0_137_73                                  Continuous HEAD                  All times    "1 138 74"
0_138_116                                 Continuous HEAD                  All times    "1 139 117"
0_139_122                                 Continuous HEAD                  All times    "1 140 123"
0_140_74                                  Continuous HEAD                  All times    "1 141 75"
0_140_89                                  Continuous HEAD                  All times    "1 141 90"
0_141_114                                 Continuous HEAD                  All times    "1 142 115"
0_142_116                                 Continuous HEAD                  All times    "1 143 117"
0_143_107                                 Continuous HEAD                  All times    "1 144 108"
0_146_106                                 Continuous HEAD                  All times    "1 147 107"
0_147_91                                  Continuous HEAD                  All times    "1 148 92"
0_147_97                                  Continuous HEAD                  All times    "1 148 98"
0_148_98                                  Continuous HEAD                  All times    "1 149 99"
0_149_129                                 Continuous HEAD                  All times    "1 150 130"
0_152_94                                  Continuous HEAD                  All times    "1 153 95"
0_153_111                                 Continuous HEAD                  All times    "1 154 112"
0_153_113                                 Continuous HEAD                  All times    "1 154 114"
0_153_124                                 Continuous HEAD                  All times    "1 154 125"
0_154_126                                 Continuous HEAD                  All times    "1 155 127"
0_155_123                                 Continuous HEAD                  All times    "1 156 124"
0_155_131                                 Continuous HEAD                  All times    "1 156 132"
0_156_96                                  Continuous HEAD                  All times    "1 157 97"
0_156_99                                  Continuous HEAD                  All times    "1 157 100"
0_165_59                                  Continuous HEAD                  All times    "1 166 60"
0_165_101                                 Continuous HEAD                  All times    "1 166 102"
0_167_59                                  Continuous HEAD                  All times    "1 168 60"
0_167_66                                  Continuous HEAD                  All times    "1 168 67"
0_45_124                                  Continuous HEAD                  All times    "1 46 125"
0_170_54                                  Continuous HEAD                  All times    "1 171 55"
0_97_71                                   Continuous HEAD                  All times    "1 98 72"
0_102_117                                 Continuous HEAD                  All times    "1 103 118"
0_154_78                                  Continuous HEAD                  All times    "1 155 79"
0_151_91                                  Continuous HEAD                  All times    "1 152 92"
0_91_62                                   Continuous HEAD                  All times    "1 92 63"
0_96_40                                   Continuous HEAD                  All times    "1 97 41"
0_167_55                                  Continuous HEAD                  All times    "1 168 56"
0_79_93                                   Continuous HEAD                  All times    "1 80 94"
0_165_54                                  Continuous HEAD                  All times    "1 166 55"
0_92_60                                   Continuous HEAD                  All times    "1 93 61"
0_139_120                                 Continuous HEAD                  All times    "1 140 121"
0_112_42                                  Continuous HEAD                  All times    "1 113 43"
0_60_86                                   Continuous HEAD                  All times    "1 61 87"
0_83_116                                  Continuous HEAD                  All times    "1 84 117"
0_48_117                                  Continuous HEAD                  All times    "1 49 118"
0_121_104                                 Continuous HEAD                  All times    "1 122 105"
0_51_120                                  Continuous HEAD                  All times    "1 52 121"
0_94_53                                   Continuous HEAD                  All times    "1 95 54"
0_128_81                                  Continuous HEAD                  All times    "1 129 82"
0_102_124                                 Continuous HEAD                  All times    "1 103 125"
0_130_113                                 Continuous HEAD                  All times    "1 131 114"
0_168_66                                  Continuous HEAD                  All times    "1 169 67"
0_104_112                                 Continuous HEAD                  All times    "1 105 113"
0_91_81                                   Continuous HEAD                  All times    "1 92 82"
0_25_128                                  Continuous HEAD                  All times    "1 26 129"
0_146_85                                  Continuous HEAD                  All times    "1 147 86"
0_164_93                                  Continuous HEAD                  All times    "1 165 94"
0_63_82                                   Continuous HEAD                  All times    "1 64 83"
0_88_107                                  Continuous HEAD                  All times    "1 89 108"
0_89_79                                   Continuous HEAD                  All times    "1 90 80"
0_112_10                                  Continuous HEAD                  All times    "1 113 11"
0_85_86                                   Continuous HEAD                  All times    "1 86 87"
0_142_112                                 Continuous HEAD                  All times    "1 143 113"
0_129_97                                  Continuous HEAD                  All times    "1 130 98"
0_42_121                                  Continuous HEAD                  All times    "1 43 122"
0_100_94                                  Continuous HEAD                  All times    "1 101 95"
0_64_108                                  Continuous HEAD                  All times    "1 65 109"
0_116_90                                  Continuous HEAD                  All times    "1 117 91"
0_81_93                                   Continuous HEAD                  All times    "1 82 94"
0_43_126                                  Continuous HEAD                  All times    "1 44 127"
0_92_50                                   Continuous HEAD                  All times    "1 93 51"
0_118_84                                  Continuous HEAD                  All times    "1 119 85"
0_159_122                                 Continuous HEAD                  All times    "1 160 123"
0_107_128                                 Continuous HEAD                  All times    "1 108 129"
0_114_74                                  Continuous HEAD                  All times    "1 115 75"
0_102_20                                  Continuous HEAD                  All times    "1 103 21"
0_111_55                                  Continuous HEAD                  All times    "1 112 56"
0_149_114                                 Continuous HEAD                  All times    "1 150 115"
0_98_102                                  Continuous HEAD                  All times    "1 99 103"
0_130_48                                  Continuous HEAD                  All times    "1 131 49"
0_39_125                                  Continuous HEAD                  All times    "1 40 126"
0_123_127                                 Continuous HEAD                  All times    "1 124 128"
0_32_123                                  Continuous HEAD                  All times    "1 33 124"
0_130_71                                  Continuous HEAD                  All times    "1 131 72"
0_116_122                                 Continuous HEAD                  All times    "1 117 123"
0_101_125                                 Continuous HEAD                  All times    "1 102 126"
0_49_96                                   Continuous HEAD                  All times    "1 50 97"
0_102_109                                 Continuous HEAD                  All times    "1 103 110"
0_130_115                                 Continuous HEAD                  All times    "1 131 116"
0_173_52                                  Continuous HEAD                  All times    "1 174 53"
0_97_36                                   Continuous HEAD                  All times    "1 98 37"
0_113_77                                  Continuous HEAD                  All times    "1 114 78"
0_86_88                                   Continuous HEAD                  All times    "1 87 89"
0_126_69                                  Continuous HEAD                  All times    "1 127 70"
0_92_103                                  Continuous HEAD                  All times    "1 93 104"
0_160_112                                 Continuous HEAD                  All times    "1 161 113"
0_126_95                                  Continuous HEAD                  All times    "1 127 96"
0_157_61                                  Continuous HEAD                  All times    "1 158 62"
0_92_45                                   Continuous HEAD                  All times    "1 93 46"
0_133_66                                  Continuous HEAD                  All times    "1 134 67"
0_58_89                                   Continuous HEAD                  All times    "1 59 90"
0_159_58                                  Continuous HEAD                  All times    "1 160 59"
0_36_126                                  Continuous HEAD                  All times    "1 37 127"
0_110_104                                 Continuous HEAD                  All times    "1 111 105"
0_168_63                                  Continuous HEAD                  All times    "1 169 64"
0_98_113                                  Continuous HEAD                  All times    "1 99 114"
0_136_69                                  Continuous HEAD                  All times    "1 137 70"
0_114_7                                   Continuous HEAD                  All times    "1 115 8"
0_132_112                                 Continuous HEAD                  All times    "1 133 113"
0_86_94                                   Continuous HEAD                  All times    "1 87 95"
0_148_55                                  Continuous HEAD                  All times    "1 149 56"
0_171_52                                  Continuous HEAD                  All times    "1 172 53"
0_150_77                                  Continuous HEAD                  All times    "1 151 78"
0_153_113                                 Continuous HEAD                  All times    "1 154 114"
0_118_70                                  Continuous HEAD                  All times    "1 119 71"
0_29_120                                  Continuous HEAD                  All times    "1 30 121"
0_127_68                                  Continuous HEAD                  All times    "1 128 69"
0_112_28                                  Continuous HEAD                  All times    "1 113 29"
0_158_89                                  Continuous HEAD                  All times    "1 159 90"
0_71_76                                   Continuous HEAD                  All times    "1 72 77"
0_32_118                                  Continuous HEAD                  All times    "1 33 119"
0_86_101                                  Continuous HEAD                  All times    "1 87 102"
0_41_121                                  Continuous HEAD                  All times    "1 42 122"
0_100_30                                  Continuous HEAD                  All times    "1 101 31"
0_123_83                                  Continuous HEAD                  All times    "1 124 84"
0_67_88                                   Continuous HEAD                  All times    "1 68 89"
0_155_74                                  Continuous HEAD                  All times    "1 156 75"
0_74_92                                   Continuous HEAD                  All times    "1 75 93"
0_136_57                                  Continuous HEAD                  All times    "1 137 58"
0_87_120                                  Continuous HEAD                  All times    "1 88 121"
0_154_86                                  Continuous HEAD                  All times    "1 155 87"
0_127_82                                  Continuous HEAD                  All times    "1 128 83"
0_132_48                                  Continuous HEAD                  All times    "1 133 49"
0_69_81                                   Continuous HEAD                  All times    "1 70 82"
0_142_129                                 Continuous HEAD                  All times    "1 143 130"
0_152_79                                  Continuous HEAD                  All times    "1 153 80"
0_116_78                                  Continuous HEAD                  All times    "1 117 79"
0_62_115                                  Continuous HEAD                  All times    "1 63 116"
0_75_102                                  Continuous HEAD                  All times    "1 76 103"
0_81_105                                  Continuous HEAD                  All times    "1 82 106"
0_112_107                                 Continuous HEAD                  All times    "1 113 108"
0_114_41                                  Continuous HEAD                  All times    "1 115 42"
0_166_53                                  Continuous HEAD                  All times    "1 167 54"
0_136_84                                  Continuous HEAD                  All times    "1 137 85"
0_48_97                                   Continuous HEAD                  All times    "1 49 98"
0_90_129                                  Continuous HEAD                  All times    "1 91 130"
0_80_69                                   Continuous HEAD                  All times    "1 81 70"
0_86_70                                   Continuous HEAD                  All times    "1 87 71"
0_157_111                                 Continuous HEAD                  All times    "1 158 112"
0_79_74                                   Continuous HEAD                  All times    "1 80 75"
0_88_101                                  Continuous HEAD                  All times    "1 89 102"
0_121_79                                  Continuous HEAD                  All times    "1 122 80"
0_52_109                                  Continuous HEAD                  All times    "1 53 110"
0_151_101                                 Continuous HEAD                  All times    "1 152 102"
0_63_108                                  Continuous HEAD                  All times    "1 64 109"
0_111_38                                  Continuous HEAD                  All times    "1 112 39"
0_101_22                                  Continuous HEAD                  All times    "1 102 23"
0_96_85                                   Continuous HEAD                  All times    "1 97 86"
0_89_48                                   Continuous HEAD                  All times    "1 90 49"
0_103_124                                 Continuous HEAD                  All times    "1 104 125"
0_85_120                                  Continuous HEAD                  All times    "1 86 121"
0_115_59                                  Continuous HEAD                  All times    "1 116 60"
0_73_88                                   Continuous HEAD                  All times    "1 74 89"
0_117_52                                  Continuous HEAD                  All times    "1 118 53"
0_88_110                                  Continuous HEAD                  All times    "1 89 111"
0_42_128                                  Continuous HEAD                  All times    "1 43 129"
0_107_107                                 Continuous HEAD                  All times    "1 108 108"
0_152_99                                  Continuous HEAD                  All times    "1 153 100"
0_147_103                                 Continuous HEAD                  All times    "1 148 104"
0_98_92                                   Continuous HEAD                  All times    "1 99 93"
0_138_112                                 Continuous HEAD                  All times    "1 139 113"
0_80_123                                  Continuous HEAD                  All times    "1 81 124"
0_70_80                                   Continuous HEAD                  All times    "1 71 81"
0_134_91                                  Continuous HEAD                  All times    "1 135 92"
0_94_77                                   Continuous HEAD                  All times    "1 95 78"
0_125_67                                  Continuous HEAD                  All times    "1 126 68"
0_135_74                                  Continuous HEAD                  All times    "1 136 75"
0_139_53                                  Continuous HEAD                  All times    "1 140 54"
0_158_77                                  Continuous HEAD                  All times    "1 159 78"
0_118_50                                  Continuous HEAD                  All times    "1 119 51"
0_99_101                                  Continuous HEAD                  All times    "1 100 102"
0_59_100                                  Continuous HEAD                  All times    "1 60 101"
0_128_62                                  Continuous HEAD                  All times    "1 129 63"
0_53_96                                   Continuous HEAD                  All times    "1 54 97"
0_163_103                                 Continuous HEAD                  All times    "1 164 104"
0_137_117                                 Continuous HEAD                  All times    "1 138 118"
0_100_37                                  Continuous HEAD                  All times    "1 101 38"
0_119_103                                 Continuous HEAD                  All times    "1 120 104"
0_144_110                                 Continuous HEAD                  All times    "1 145 111"
0_107_49                                  Continuous HEAD                  All times    "1 108 50"
0_57_82                                   Continuous HEAD                  All times    "1 58 83"
0_141_53                                  Continuous HEAD                  All times    "1 142 54"
0_136_48                                  Continuous HEAD                  All times    "1 137 49"
0_97_80                                   Continuous HEAD                  All times    "1 98 81"
0_92_41                                   Continuous HEAD                  All times    "1 93 42"
0_159_84                                  Continuous HEAD                  All times    "1 160 85"
0_124_64                                  Continuous HEAD                  All times    "1 125 65"
0_67_103                                  Continuous HEAD                  All times    "1 68 104"
0_79_75                                   Continuous HEAD                  All times    "1 80 76"
0_153_98                                  Continuous HEAD                  All times    "1 154 99"
0_86_67                                   Continuous HEAD                  All times    "1 87 68"
0_117_56                                  Continuous HEAD                  All times    "1 118 57"
0_117_99                                  Continuous HEAD                  All times    "1 118 100"
0_131_116                                 Continuous HEAD                  All times    "1 132 117"
0_149_98                                  Continuous HEAD                  All times    "1 150 99"
0_83_92                                   Continuous HEAD                  All times    "1 84 93"
0_147_108                                 Continuous HEAD                  All times    "1 148 109"
0_141_56                                  Continuous HEAD                  All times    "1 142 57"
0_146_61                                  Continuous HEAD                  All times    "1 147 62"
0_147_116                                 Continuous HEAD                  All times    "1 148 117"
0_130_129                                 Continuous HEAD                  All times    "1 131 130"
0_139_60                                  Continuous HEAD                  All times    "1 140 61"
0_115_110                                 Continuous HEAD                  All times    "1 116 111"
0_55_101                                  Continuous HEAD                  All times    "1 56 102"
0_64_110                                  Continuous HEAD                  All times    "1 65 111"
0_107_29                                  Continuous HEAD                  All times    "1 108 30"
0_143_111                                 Continuous HEAD                  All times    "1 144 112"
0_100_26                                  Continuous HEAD                  All times    "1 101 27"
0_141_58                                  Continuous HEAD                  All times    "1 142 59"
0_103_63                                  Continuous HEAD                  All times    "1 104 64"
0_167_63                                  Continuous HEAD                  All times    "1 168 64"
0_82_127                                  Continuous HEAD                  All times    "1 83 128"
0_115_43                                  Continuous HEAD                  All times    "1 116 44"
0_67_79                                   Continuous HEAD                  All times    "1 68 80"
0_140_107                                 Continuous HEAD                  All times    "1 141 108"
0_117_71                                  Continuous HEAD                  All times    "1 118 72"
0_40_108                                  Continuous HEAD                  All times    "1 41 109"
0_116_36                                  Continuous HEAD                  All times    "1 117 37"
    BINARY GRID INFORMATION WILL BE WRITTEN TO:
      UNIT NUMBER: 1028
      FILE NAME: C:\Users\emmal\Documents\GitHub\TM_Ludovic_Schorpp\codes_tests\PEST++inv\2D\master_glm\pest_2D_R.dis.grb

 OPENED C:\Users\emmal\Documents\GitHub\TM_Ludovic_Schorpp\codes_tests\PEST++inv\2D\master_glm\pest_2D_R.dis.grb
 FILE TYPE:DATA(BINARY)   UNIT 1028   STATUS:REPLACE             
 FORMAT:UNFORMATTED            ACCESS:STREAM              
 ACTION:READWRITE           

      THE LAST TIME STEP WILL BE PRINTED
      THE LAST TIME STEP WILL BE PRINTED
 PROCESSING OC OPTIONS
    BUDGET INFORMATION WILL BE WRITTEN TO:
      UNIT NUMBER: 1029
      FILE NAME: pest_2D_R.cbc

 OPENED pest_2D_R.cbc
 FILE TYPE:DATA(BINARY)   UNIT 1029   STATUS:REPLACE             
 FORMAT:UNFORMATTED            ACCESS:STREAM              
 ACTION:READWRITE           

    HEAD INFORMATION WILL BE WRITTEN TO:
      UNIT NUMBER: 1030
      FILE NAME: pest_2D_R.hds

 OPENED pest_2D_R.hds
 FILE TYPE:DATA(BINARY)   UNIT 1030   STATUS:REPLACE             
 FORMAT:UNFORMATTED            ACCESS:STREAM              
 ACTION:READWRITE           

 END OF OC OPTIONS

 BEGIN READING OUTPUT CONTROL FOR STRESS PERIOD 1
      THE LAST TIME STEP WILL BE SAVED
      ALL TIME STEPS WILL BE SAVED
      ALL TIME STEPS WILL BE PRINTED

 END READING OUTPUT CONTROL FOR STRESS PERIOD 1

 OPENED irr.txt
 FILE TYPE:OPEN/CLOSE   UNIT 1031   STATUS:OLD                 
 FORMAT:FORMATTED              ACCESS:SEQUENTIAL          
 ACTION:READ                

 UBDSV1 SAVING     FLOW-JA-FACE ON UNIT   1029 AT TIME STEP      1, STRESS PERIOD      1
 UBDSV06 SAVING       DATA-SPDIS IN MODEL PEST_2D_R        PACKAGE NPF             CONNECTED TO MODEL PEST_2D_R        PACKAGE NPF              ON UNIT   1029 AT TIME STEP      1, STRESS PERIOD      1
 UBDSV06 SAVING              WEL IN MODEL PEST_2D_R        PACKAGE PEST_2D_R       CONNECTED TO MODEL PEST_2D_R        PACKAGE WEL              ON UNIT   1029 AT TIME STEP      1, STRESS PERIOD      1
 UBDSV06 SAVING              WEL IN MODEL PEST_2D_R        PACKAGE PEST_2D_R       CONNECTED TO MODEL PEST_2D_R        PACKAGE CORB             ON UNIT   1029 AT TIME STEP      1, STRESS PERIOD      1
 UBDSV06 SAVING              DRN IN MODEL PEST_2D_R        PACKAGE PEST_2D_R       CONNECTED TO MODEL PEST_2D_R        PACKAGE ETA              ON UNIT   1029 AT TIME STEP      1, STRESS PERIOD      1
 UBDSV06 SAVING              RIV IN MODEL PEST_2D_R        PACKAGE PEST_2D_R       CONNECTED TO MODEL PEST_2D_R        PACKAGE AGY              ON UNIT   1029 AT TIME STEP      1, STRESS PERIOD      1
 UBDSV06 SAVING              RIV IN MODEL PEST_2D_R        PACKAGE PEST_2D_R       CONNECTED TO MODEL PEST_2D_R        PACKAGE TET              ON UNIT   1029 AT TIME STEP      1, STRESS PERIOD      1
 UBDSV06 SAVING              RIV IN MODEL PEST_2D_R        PACKAGE PEST_2D_R       CONNECTED TO MODEL PEST_2D_R        PACKAGE REA              ON UNIT   1029 AT TIME STEP      1, STRESS PERIOD      1
 UBDSV06 SAVING              RIV IN MODEL PEST_2D_R        PACKAGE PEST_2D_R       CONNECTED TO MODEL PEST_2D_R        PACKAGE CANT             ON UNIT   1029 AT TIME STEP      1, STRESS PERIOD      1
 UBDSV06 SAVING              RIV IN MODEL PEST_2D_R        PACKAGE PEST_2D_R       CONNECTED TO MODEL PEST_2D_R        PACKAGE TECH             ON UNIT   1029 AT TIME STEP      1, STRESS PERIOD      1
 UBDSV06 SAVING              RIV IN MODEL PEST_2D_R        PACKAGE PEST_2D_R       CONNECTED TO MODEL PEST_2D_R        PACKAGE BOL              ON UNIT   1029 AT TIME STEP      1, STRESS PERIOD      1
 UBDSV06 SAVING              RCH IN MODEL PEST_2D_R        PACKAGE PEST_2D_R       CONNECTED TO MODEL PEST_2D_R        PACKAGE RCHA             ON UNIT   1029 AT TIME STEP      1, STRESS PERIOD      1
 UBDSV06 SAVING              RCH IN MODEL PEST_2D_R        PACKAGE PEST_2D_R       CONNECTED TO MODEL PEST_2D_R        PACKAGE P_AG             ON UNIT   1029 AT TIME STEP      1, STRESS PERIOD      1
 UBDSV06 SAVING              RCH IN MODEL PEST_2D_R        PACKAGE PEST_2D_R       CONNECTED TO MODEL PEST_2D_R        PACKAGE IRR              ON UNIT   1029 AT TIME STEP      1, STRESS PERIOD      1
 UBDSV06 SAVING              CHD IN MODEL PEST_2D_R        PACKAGE PEST_2D_R       CONNECTED TO MODEL PEST_2D_R        PACKAGE THUIR            ON UNIT   1029 AT TIME STEP      1, STRESS PERIOD      1
 UBDSV06 SAVING              CHD IN MODEL PEST_2D_R        PACKAGE PEST_2D_R       CONNECTED TO MODEL PEST_2D_R        PACKAGE SEA              ON UNIT   1029 AT TIME STEP      1, STRESS PERIOD      1

 HEAD WILL BE SAVED ON UNIT 1030 AT END OF TIME STEP    1, STRESS PERIOD    1


  VOLUME BUDGET FOR ENTIRE MODEL AT END OF TIME STEP    1, STRESS PERIOD   1
  ---------------------------------------------------------------------------------------------------

     CUMULATIVE VOLUME      L**3       RATES FOR THIS TIME STEP      L**3/T          PACKAGE NAME    
     ------------------                 ------------------------                     ----------------

           IN:                                      IN:
           ---                                      ---
                 WEL =           0.0000                   WEL =           0.0000     WEL             
                 WEL =           0.2000                   WEL =           0.2000     CORB            
                 DRN =       2.1303E-08                   DRN =       2.1303E-08     ETA             
                 RIV =       2.7146E-02                   RIV =       2.7146E-02     AGY             
                 RIV =           0.2562                   RIV =           0.2562     TET             
                 RIV =           0.7632                   RIV =           0.7632     REA             
                 RIV =           0.5060                   RIV =           0.5060     CANT            
                 RIV =           0.4036                   RIV =           0.4036     TECH            
                 RIV =           0.4768                   RIV =           0.4768     BOL             
                 RCH =           3.0365                   RCH =           3.0365     RCHA            
                 RCH =           0.0000                   RCH =           0.0000     P_AG            
                 RCH =           0.7655                   RCH =           0.7655     IRR             
                 CHD =           0.8167                   CHD =           0.8167     THUIR           
                 CHD =       7.3296E-02                   CHD =       7.3296E-02     SEA             

            TOTAL IN =           7.3250              TOTAL IN =           7.3250

          OUT:                                     OUT:
          ----                                     ----
                 WEL =           1.5165                   WEL =           1.5165     WEL             
                 WEL =           0.0000                   WEL =           0.0000     CORB            
                 DRN =           1.2063                   DRN =           1.2063     ETA             
                 RIV =       6.5641E-02                   RIV =       6.5641E-02     AGY             
                 RIV =           1.1328                   RIV =           1.1328     TET             
                 RIV =           0.1439                   RIV =           0.1439     REA             
                 RIV =       7.4254E-02                   RIV =       7.4254E-02     CANT            
                 RIV =           0.4072                   RIV =           0.4072     TECH            
                 RIV =       2.9238E-02                   RIV =       2.9238E-02     BOL             
                 RCH =           0.0000                   RCH =           0.0000     RCHA            
                 RCH =           0.6822                   RCH =           0.6822     P_AG            
                 RCH =           0.0000                   RCH =           0.0000     IRR             
                 CHD =       1.6208E-03                   CHD =       1.6208E-03     THUIR           
                 CHD =           2.0650                   CHD =           2.0650     SEA             

           TOTAL OUT =           7.3247             TOTAL OUT =           7.3247

            IN - OUT =       3.0983E-04              IN - OUT =       3.0983E-04

 PERCENT DISCREPANCY =           0.00     PERCENT DISCREPANCY =           0.00




         TIME SUMMARY AT END OF TIME STEP    1 IN STRESS PERIOD    1
                    SECONDS     MINUTES      HOURS       DAYS        YEARS
                    -----------------------------------------------------------
   TIME STEP LENGTH  1.0000     1.66667E-02 2.77778E-04 1.15741E-05 3.16881E-08
 STRESS PERIOD TIME  1.0000     1.66667E-02 2.77778E-04 1.15741E-05 3.16881E-08
         TOTAL TIME  1.0000     1.66667E-02 2.77778E-04 1.15741E-05 3.16881E-08
