                                   MODFLOW 6
                U.S. GEOLOGICAL SURVEY MODULAR HYDROLOGIC MODEL
                          GROUNDWATER FLOW MODEL (GWF)
                            VERSION 6.0.4 03/13/2019

   MODFLOW 6 compiled Mar 21 2019 15:37:31 with IFORT compiler (ver. 19.0.0)

This software has been approved for release by the U.S. Geological 
Survey (USGS). Although the software has been subjected to rigorous 
review, the USGS reserves the right to update the software as needed 
pursuant to further analysis and review. No warranty, expressed or 
implied, is made by the USGS or the U.S. Government as to the 
functionality of the software and related material nor shall the 
fact of release constitute any such warranty. Furthermore, the 
software is released on condition that neither the USGS nor the U.S. 
Government shall be held liable for any damages resulting from its 
authorized or unauthorized use. Also refer to the USGS Water 
Resources Software User Rights Notice for complete use, copyright, 
and distribution information.


MODFLOW was compiled using uniform precision.
Precision of REAL variables: 15


 OPENED pest_2D_R.dis
 FILE TYPE:DIS6                   UNIT 1005   STATUS:OLD                 
 FORMAT:FORMATTED              ACCESS:SEQUENTIAL          
 ACTION:READ                


 OPENED pest_2D_R.ic
 FILE TYPE:IC6                    UNIT 1006   STATUS:OLD                 
 FORMAT:FORMATTED              ACCESS:SEQUENTIAL          
 ACTION:READ                


 OPENED pest_2D_R.oc
 FILE TYPE:OC6                    UNIT 1007   STATUS:OLD                 
 FORMAT:FORMATTED              ACCESS:SEQUENTIAL          
 ACTION:READ                


 OPENED pest_2D_R.obs
 FILE TYPE:OBS6                   UNIT 1008   STATUS:OLD                 
 FORMAT:FORMATTED              ACCESS:SEQUENTIAL          
 ACTION:READ                


 OPENED pest_2D_R.npf
 FILE TYPE:NPF6                   UNIT 1009   STATUS:OLD                 
 FORMAT:FORMATTED              ACCESS:SEQUENTIAL          
 ACTION:READ                


 OPENED pest_2D_R.rcha
 FILE TYPE:RCH6                   UNIT 1010   STATUS:OLD                 
 FORMAT:FORMATTED              ACCESS:SEQUENTIAL          
 ACTION:READ                


 OPENED p_ag.rch
 FILE TYPE:RCH6                   UNIT 1011   STATUS:OLD                 
 FORMAT:FORMATTED              ACCESS:SEQUENTIAL          
 ACTION:READ                


 OPENED irr.rch
 FILE TYPE:RCH6                   UNIT 1012   STATUS:OLD                 
 FORMAT:FORMATTED              ACCESS:SEQUENTIAL          
 ACTION:READ                


 OPENED wel.wel
 FILE TYPE:WEL6                   UNIT 1013   STATUS:OLD                 
 FORMAT:FORMATTED              ACCESS:SEQUENTIAL          
 ACTION:READ                


 OPENED Corb.wel
 FILE TYPE:WEL6                   UNIT 1014   STATUS:OLD                 
 FORMAT:FORMATTED              ACCESS:SEQUENTIAL          
 ACTION:READ                


 OPENED thuir.chd
 FILE TYPE:CHD6                   UNIT 1015   STATUS:OLD                 
 FORMAT:FORMATTED              ACCESS:SEQUENTIAL          
 ACTION:READ                


 OPENED sea.chd
 FILE TYPE:CHD6                   UNIT 1016   STATUS:OLD                 
 FORMAT:FORMATTED              ACCESS:SEQUENTIAL          
 ACTION:READ                


 OPENED eta.drn
 FILE TYPE:DRN6                   UNIT 1017   STATUS:OLD                 
 FORMAT:FORMATTED              ACCESS:SEQUENTIAL          
 ACTION:READ                


 OPENED agy.chd
 FILE TYPE:RIV6                   UNIT 1018   STATUS:OLD                 
 FORMAT:FORMATTED              ACCESS:SEQUENTIAL          
 ACTION:READ                


 OPENED Tet.chd
 FILE TYPE:RIV6                   UNIT 1019   STATUS:OLD                 
 FORMAT:FORMATTED              ACCESS:SEQUENTIAL          
 ACTION:READ                


 OPENED Rea.chd
 FILE TYPE:RIV6                   UNIT 1020   STATUS:OLD                 
 FORMAT:FORMATTED              ACCESS:SEQUENTIAL          
 ACTION:READ                


 OPENED Cant.chd
 FILE TYPE:RIV6                   UNIT 1021   STATUS:OLD                 
 FORMAT:FORMATTED              ACCESS:SEQUENTIAL          
 ACTION:READ                


 OPENED Tech.chd
 FILE TYPE:RIV6                   UNIT 1022   STATUS:OLD                 
 FORMAT:FORMATTED              ACCESS:SEQUENTIAL          
 ACTION:READ                


 OPENED Bol.chd
 FILE TYPE:RIV6                   UNIT 1023   STATUS:OLD                 
 FORMAT:FORMATTED              ACCESS:SEQUENTIAL          
 ACTION:READ                


 DIS -- STRUCTURED GRID DISCRETIZATION PACKAGE, VERSION 2 : 3/27/2014 - INPUT READ FROM UNIT 1005


 PROCESSING DISCRETIZATION OPTIONS
    XORIGIN SPECIFIED AS     664525.000000000    
    YORIGIN SPECIFIED AS     6152875.00000000    
 END OF DISCRETIZATION OPTIONS
 MODEL LENGTH UNIT IS UNDEFINED
 PROCESSING DISCRETIZATION DIMENSIONS
    NLAY =       1
    NROW =     182
    NCOL =     183
 END OF DISCRETIZATION DIMENSIONS
 PROCESSING GRIDDATA
 END PROCESSING GRIDDATA

 THE SPECIFIED IDOMAIN RESULTS IN A REDUCED NUMBER OF CELLS.
 NUMBER OF USER NODES:   33306
 NUMBER OF NODES IN SOLUTION:   17233



 NPF -- NODE PROPERTY FLOW PACKAGE, VERSION 1, 3/30/2015 INPUT READ FROM UNIT 1009


 PROCESSING NPF OPTIONS
    CELL-BY-CELL FLOW INFORMATION WILL BE SAVED TO BINARY FILE WHENEVER ICBCFL IS NOT ZERO.
 END OF NPF OPTIONS

 WEL   -- WEL PACKAGE, VERSION 8, 2/22/2014 INPUT READ FROM UNIT 1013

 PROCESSING WEL OPTIONS
    FLOWS WILL BE SAVED TO BUDGET FILE SPECIFIED IN OUTPUT CONTROL
 END OF WEL OPTIONS

 PROCESSING WEL DIMENSIONS
    MAXBOUND =     400
 END OF WEL DIMENSIONS

 WEL   -- WEL PACKAGE, VERSION 8, 2/22/2014 INPUT READ FROM UNIT 1014

 PROCESSING WEL OPTIONS
    FLOWS WILL BE SAVED TO BUDGET FILE SPECIFIED IN OUTPUT CONTROL
 END OF WEL OPTIONS

 PROCESSING WEL DIMENSIONS
    MAXBOUND =      49
 END OF WEL DIMENSIONS

 DRN   -- DRN PACKAGE, VERSION 8, 2/22/2014 INPUT READ FROM UNIT 1017

 PROCESSING DRN OPTIONS
    FLOWS WILL BE SAVED TO BUDGET FILE SPECIFIED IN OUTPUT CONTROL
 END OF DRN OPTIONS

 PROCESSING DRN DIMENSIONS
    MAXBOUND =     644
 END OF DRN DIMENSIONS

 RIV   -- RIV PACKAGE, VERSION 8, 2/22/2014 INPUT READ FROM UNIT 1018

 PROCESSING RIV OPTIONS
    FLOWS WILL BE SAVED TO BUDGET FILE SPECIFIED IN OUTPUT CONTROL
 END OF RIV OPTIONS

 PROCESSING RIV DIMENSIONS
    MAXBOUND =      86
 END OF RIV DIMENSIONS

 RIV   -- RIV PACKAGE, VERSION 8, 2/22/2014 INPUT READ FROM UNIT 1019

 PROCESSING RIV OPTIONS
    FLOWS WILL BE SAVED TO BUDGET FILE SPECIFIED IN OUTPUT CONTROL
 END OF RIV OPTIONS

 PROCESSING RIV DIMENSIONS
    MAXBOUND =     169
 END OF RIV DIMENSIONS

 RIV   -- RIV PACKAGE, VERSION 8, 2/22/2014 INPUT READ FROM UNIT 1020

 PROCESSING RIV OPTIONS
    FLOWS WILL BE SAVED TO BUDGET FILE SPECIFIED IN OUTPUT CONTROL
 END OF RIV OPTIONS

 PROCESSING RIV DIMENSIONS
    MAXBOUND =     130
 END OF RIV DIMENSIONS

 RIV   -- RIV PACKAGE, VERSION 8, 2/22/2014 INPUT READ FROM UNIT 1021

 PROCESSING RIV OPTIONS
    FLOWS WILL BE SAVED TO BUDGET FILE SPECIFIED IN OUTPUT CONTROL
 END OF RIV OPTIONS

 PROCESSING RIV DIMENSIONS
    MAXBOUND =      65
 END OF RIV DIMENSIONS

 RIV   -- RIV PACKAGE, VERSION 8, 2/22/2014 INPUT READ FROM UNIT 1022

 PROCESSING RIV OPTIONS
    FLOWS WILL BE SAVED TO BUDGET FILE SPECIFIED IN OUTPUT CONTROL
 END OF RIV OPTIONS

 PROCESSING RIV DIMENSIONS
    MAXBOUND =     105
 END OF RIV DIMENSIONS

 RIV   -- RIV PACKAGE, VERSION 8, 2/22/2014 INPUT READ FROM UNIT 1023

 PROCESSING RIV OPTIONS
    FLOWS WILL BE SAVED TO BUDGET FILE SPECIFIED IN OUTPUT CONTROL
 END OF RIV OPTIONS

 PROCESSING RIV DIMENSIONS
    MAXBOUND =      47
 END OF RIV DIMENSIONS

 RCH   -- RCH PACKAGE, VERSION 8, 2/22/2014 INPUT READ FROM UNIT 1010

 PROCESSING RCH OPTIONS
    RECHARGE INPUT WILL BE READ AS ARRAY(S).
    FLOWS WILL BE SAVED TO BUDGET FILE SPECIFIED IN OUTPUT CONTROL
 END OF RCH OPTIONS

 RCH   -- RCH PACKAGE, VERSION 8, 2/22/2014 INPUT READ FROM UNIT 1011

 PROCESSING RCH OPTIONS
    RECHARGE INPUT WILL BE READ AS ARRAY(S).
    FLOWS WILL BE SAVED TO BUDGET FILE SPECIFIED IN OUTPUT CONTROL
 END OF RCH OPTIONS

 RCH   -- RCH PACKAGE, VERSION 8, 2/22/2014 INPUT READ FROM UNIT 1012

 PROCESSING RCH OPTIONS
    RECHARGE INPUT WILL BE READ AS ARRAY(S).
    FLOWS WILL BE SAVED TO BUDGET FILE SPECIFIED IN OUTPUT CONTROL
 END OF RCH OPTIONS

 CHD   -- CHD PACKAGE, VERSION 8, 2/22/2014 INPUT READ FROM UNIT 1015

 PROCESSING CHD OPTIONS
    FLOWS WILL BE SAVED TO BUDGET FILE SPECIFIED IN OUTPUT CONTROL
 END OF CHD OPTIONS

 PROCESSING CHD DIMENSIONS
    MAXBOUND =      16
 END OF CHD DIMENSIONS

 CHD   -- CHD PACKAGE, VERSION 8, 2/22/2014 INPUT READ FROM UNIT 1016

 PROCESSING CHD OPTIONS
    FLOWS WILL BE SAVED TO BUDGET FILE SPECIFIED IN OUTPUT CONTROL
 END OF CHD OPTIONS

 PROCESSING CHD DIMENSIONS
    MAXBOUND =    7350
 END OF CHD DIMENSIONS

 IC -- INITIAL CONDITIONS PACKAGE, VERSION 8, 3/28/2015 INPUT READ FROM UNIT 1006
 PROCESSING GRIDDATA
 END PROCESSING GRIDDATA
 PROCESSING GRIDDATA

                ICELLTYPE = 0

 OPENED k.txt
 FILE TYPE:OPEN/CLOSE   UNIT 1025   STATUS:OLD                 
 FORMAT:FORMATTED              ACCESS:SEQUENTIAL          
 ACTION:READ                

 K33 not provided.  Assuming K33 = K.
 K22 not provided.  Assuming K22 = K.
 END PROCESSING GRIDDATA

The observation utility is active for "PEST_2D_R"

Processing observation options:

Text output number of digits of precision set to: 10
The PRINT_INPUT option has been specified.


Observations read from file "pest_2D_R.obs":
Name                                      Type                             Time         Location data
----------------------------------------  -------------------------------  -----------  --------------------------
0_50_94                                   Continuous HEAD                  All times    "1 51 95"
0_56_126                                  Continuous HEAD                  All times    "1 57 127"
0_57_83                                   Continuous HEAD                  All times    "1 58 84"
0_62_126                                  Continuous HEAD                  All times    "1 63 127"
0_63_94                                   Continuous HEAD                  All times    "1 64 95"
0_63_99                                   Continuous HEAD                  All times    "1 64 100"
0_63_117                                  Continuous HEAD                  All times    "1 64 118"
0_64_92                                   Continuous HEAD                  All times    "1 65 93"
0_64_96                                   Continuous HEAD                  All times    "1 65 97"
0_64_104                                  Continuous HEAD                  All times    "1 65 105"
0_64_111                                  Continuous HEAD                  All times    "1 65 112"
0_66_128                                  Continuous HEAD                  All times    "1 67 129"
0_67_110                                  Continuous HEAD                  All times    "1 68 111"
0_67_119                                  Continuous HEAD                  All times    "1 68 120"
0_69_104                                  Continuous HEAD                  All times    "1 70 105"
0_69_105                                  Continuous HEAD                  All times    "1 70 106"
0_69_116                                  Continuous HEAD                  All times    "1 70 117"
0_69_118                                  Continuous HEAD                  All times    "1 70 119"
0_70_73                                   Continuous HEAD                  All times    "1 71 74"
0_71_72                                   Continuous HEAD                  All times    "1 72 73"
0_73_83                                   Continuous HEAD                  All times    "1 74 84"
0_74_115                                  Continuous HEAD                  All times    "1 75 116"
0_75_124                                  Continuous HEAD                  All times    "1 76 125"
0_76_89                                   Continuous HEAD                  All times    "1 77 90"
0_79_66                                   Continuous HEAD                  All times    "1 80 67"
0_79_77                                   Continuous HEAD                  All times    "1 80 78"
0_80_103                                  Continuous HEAD                  All times    "1 81 104"
0_82_115                                  Continuous HEAD                  All times    "1 83 116"
0_83_67                                   Continuous HEAD                  All times    "1 84 68"
0_83_95                                   Continuous HEAD                  All times    "1 84 96"
0_83_106                                  Continuous HEAD                  All times    "1 84 107"
0_83_124                                  Continuous HEAD                  All times    "1 84 125"
0_84_94                                   Continuous HEAD                  All times    "1 85 95"
0_84_125                                  Continuous HEAD                  All times    "1 85 126"
0_84_127                                  Continuous HEAD                  All times    "1 85 128"
0_88_110                                  Continuous HEAD                  All times    "1 89 111"
0_91_101                                  Continuous HEAD                  All times    "1 92 102"
0_92_93                                   Continuous HEAD                  All times    "1 93 94"
0_93_114                                  Continuous HEAD                  All times    "1 94 115"
0_94_95                                   Continuous HEAD                  All times    "1 95 96"
0_94_103                                  Continuous HEAD                  All times    "1 95 104"
0_94_115                                  Continuous HEAD                  All times    "1 95 116"
0_95_75                                   Continuous HEAD                  All times    "1 96 76"
0_95_81                                   Continuous HEAD                  All times    "1 96 82"
0_95_95                                   Continuous HEAD                  All times    "1 96 96"
0_95_128                                  Continuous HEAD                  All times    "1 96 129"
0_98_43                                   Continuous HEAD                  All times    "1 99 44"
0_98_91                                   Continuous HEAD                  All times    "1 99 92"
0_99_44                                   Continuous HEAD                  All times    "1 100 45"
0_99_118                                  Continuous HEAD                  All times    "1 100 119"
0_100_51                                  Continuous HEAD                  All times    "1 101 52"
0_100_75                                  Continuous HEAD                  All times    "1 101 76"
0_101_53                                  Continuous HEAD                  All times    "1 102 54"
0_101_59                                  Continuous HEAD                  All times    "1 102 60"
0_102_22                                  Continuous HEAD                  All times    "1 103 23"
0_102_24                                  Continuous HEAD                  All times    "1 103 25"
0_102_28                                  Continuous HEAD                  All times    "1 103 29"
0_102_57                                  Continuous HEAD                  All times    "1 103 58"
0_103_32                                  Continuous HEAD                  All times    "1 104 33"
0_104_45                                  Continuous HEAD                  All times    "1 105 46"
0_104_74                                  Continuous HEAD                  All times    "1 105 75"
0_106_17                                  Continuous HEAD                  All times    "1 107 18"
0_106_58                                  Continuous HEAD                  All times    "1 107 59"
0_106_71                                  Continuous HEAD                  All times    "1 107 72"
0_108_24                                  Continuous HEAD                  All times    "1 109 25"
0_108_42                                  Continuous HEAD                  All times    "1 109 43"
0_108_43                                  Continuous HEAD                  All times    "1 109 44"
0_109_12                                  Continuous HEAD                  All times    "1 110 13"
0_110_22                                  Continuous HEAD                  All times    "1 111 23"
0_111_42                                  Continuous HEAD                  All times    "1 112 43"
0_112_16                                  Continuous HEAD                  All times    "1 113 17"
0_112_61                                  Continuous HEAD                  All times    "1 113 62"
0_113_102                                 Continuous HEAD                  All times    "1 114 103"
0_114_6                                   Continuous HEAD                  All times    "1 115 7"
0_114_13                                  Continuous HEAD                  All times    "1 115 14"
0_114_114                                 Continuous HEAD                  All times    "1 115 115"
0_115_66                                  Continuous HEAD                  All times    "1 116 67"
0_116_1                                   Continuous HEAD                  All times    "1 117 2"
0_116_59                                  Continuous HEAD                  All times    "1 117 60"
0_116_60                                  Continuous HEAD                  All times    "1 117 61"
0_116_100                                 Continuous HEAD                  All times    "1 117 101"
0_119_43                                  Continuous HEAD                  All times    "1 120 44"
0_120_112                                 Continuous HEAD                  All times    "1 121 113"
0_120_123                                 Continuous HEAD                  All times    "1 121 124"
0_121_82                                  Continuous HEAD                  All times    "1 122 83"
0_121_104                                 Continuous HEAD                  All times    "1 122 105"
0_122_94                                  Continuous HEAD                  All times    "1 123 95"
0_125_75                                  Continuous HEAD                  All times    "1 126 76"
0_129_69                                  Continuous HEAD                  All times    "1 130 70"
0_129_86                                  Continuous HEAD                  All times    "1 130 87"
0_129_100                                 Continuous HEAD                  All times    "1 130 101"
0_131_65                                  Continuous HEAD                  All times    "1 132 66"
0_132_50                                  Continuous HEAD                  All times    "1 133 51"
0_133_56                                  Continuous HEAD                  All times    "1 134 57"
0_135_119                                 Continuous HEAD                  All times    "1 136 120"
0_136_70                                  Continuous HEAD                  All times    "1 137 71"
0_137_73                                  Continuous HEAD                  All times    "1 138 74"
0_138_116                                 Continuous HEAD                  All times    "1 139 117"
0_139_122                                 Continuous HEAD                  All times    "1 140 123"
0_140_74                                  Continuous HEAD                  All times    "1 141 75"
0_140_89                                  Continuous HEAD                  All times    "1 141 90"
0_141_114                                 Continuous HEAD                  All times    "1 142 115"
0_142_116                                 Continuous HEAD                  All times    "1 143 117"
0_143_107                                 Continuous HEAD                  All times    "1 144 108"
0_146_106                                 Continuous HEAD                  All times    "1 147 107"
0_147_91                                  Continuous HEAD                  All times    "1 148 92"
0_147_97                                  Continuous HEAD                  All times    "1 148 98"
0_148_98                                  Continuous HEAD                  All times    "1 149 99"
0_149_129                                 Continuous HEAD                  All times    "1 150 130"
0_152_94                                  Continuous HEAD                  All times    "1 153 95"
0_153_111                                 Continuous HEAD                  All times    "1 154 112"
0_153_113                                 Continuous HEAD                  All times    "1 154 114"
0_153_124                                 Continuous HEAD                  All times    "1 154 125"
0_154_126                                 Continuous HEAD                  All times    "1 155 127"
0_155_123                                 Continuous HEAD                  All times    "1 156 124"
0_155_131                                 Continuous HEAD                  All times    "1 156 132"
0_156_96                                  Continuous HEAD                  All times    "1 157 97"
0_156_99                                  Continuous HEAD                  All times    "1 157 100"
0_165_59                                  Continuous HEAD                  All times    "1 166 60"
0_165_101                                 Continuous HEAD                  All times    "1 166 102"
0_167_59                                  Continuous HEAD                  All times    "1 168 60"
0_167_66                                  Continuous HEAD                  All times    "1 168 67"
    BINARY GRID INFORMATION WILL BE WRITTEN TO:
      UNIT NUMBER: 1027
      FILE NAME: C:\Users\emmal\Documents\GitHub\TM_Ludovic_Schorpp\codes_tests\PEST++inv\2D\workspace\pest_2D_R.dis.grb

 OPENED C:\Users\emmal\Documents\GitHub\TM_Ludovic_Schorpp\codes_tests\PEST++inv\2D\workspace\pest_2D_R.dis.grb
 FILE TYPE:DATA(BINARY)   UNIT 1027   STATUS:REPLACE             
 FORMAT:UNFORMATTED            ACCESS:STREAM              
 ACTION:READWRITE           

      THE LAST TIME STEP WILL BE PRINTED
      THE LAST TIME STEP WILL BE PRINTED
 PROCESSING OC OPTIONS
    BUDGET INFORMATION WILL BE WRITTEN TO:
      UNIT NUMBER: 1028
      FILE NAME: pest_2D_R.cbc

 OPENED pest_2D_R.cbc
 FILE TYPE:DATA(BINARY)   UNIT 1028   STATUS:REPLACE             
 FORMAT:UNFORMATTED            ACCESS:STREAM              
 ACTION:READWRITE           

    HEAD INFORMATION WILL BE WRITTEN TO:
      UNIT NUMBER: 1029
      FILE NAME: pest_2D_R.hds

 OPENED pest_2D_R.hds
 FILE TYPE:DATA(BINARY)   UNIT 1029   STATUS:REPLACE             
 FORMAT:UNFORMATTED            ACCESS:STREAM              
 ACTION:READWRITE           

 END OF OC OPTIONS

 BEGIN READING OUTPUT CONTROL FOR STRESS PERIOD 1
      THE LAST TIME STEP WILL BE SAVED
      ALL TIME STEPS WILL BE SAVED
      ALL TIME STEPS WILL BE PRINTED

 END READING OUTPUT CONTROL FOR STRESS PERIOD 1
 UBDSV1 SAVING     FLOW-JA-FACE ON UNIT   1028 AT TIME STEP      1, STRESS PERIOD      1
 UBDSV06 SAVING       DATA-SPDIS IN MODEL PEST_2D_R        PACKAGE NPF             CONNECTED TO MODEL PEST_2D_R        PACKAGE NPF              ON UNIT   1028 AT TIME STEP      1, STRESS PERIOD      1
 UBDSV06 SAVING              WEL IN MODEL PEST_2D_R        PACKAGE PEST_2D_R       CONNECTED TO MODEL PEST_2D_R        PACKAGE WEL              ON UNIT   1028 AT TIME STEP      1, STRESS PERIOD      1
 UBDSV06 SAVING              WEL IN MODEL PEST_2D_R        PACKAGE PEST_2D_R       CONNECTED TO MODEL PEST_2D_R        PACKAGE CORB             ON UNIT   1028 AT TIME STEP      1, STRESS PERIOD      1
 UBDSV06 SAVING              DRN IN MODEL PEST_2D_R        PACKAGE PEST_2D_R       CONNECTED TO MODEL PEST_2D_R        PACKAGE ETA              ON UNIT   1028 AT TIME STEP      1, STRESS PERIOD      1
 UBDSV06 SAVING              RIV IN MODEL PEST_2D_R        PACKAGE PEST_2D_R       CONNECTED TO MODEL PEST_2D_R        PACKAGE AGY              ON UNIT   1028 AT TIME STEP      1, STRESS PERIOD      1
 UBDSV06 SAVING              RIV IN MODEL PEST_2D_R        PACKAGE PEST_2D_R       CONNECTED TO MODEL PEST_2D_R        PACKAGE TET              ON UNIT   1028 AT TIME STEP      1, STRESS PERIOD      1
 UBDSV06 SAVING              RIV IN MODEL PEST_2D_R        PACKAGE PEST_2D_R       CONNECTED TO MODEL PEST_2D_R        PACKAGE REA              ON UNIT   1028 AT TIME STEP      1, STRESS PERIOD      1
 UBDSV06 SAVING              RIV IN MODEL PEST_2D_R        PACKAGE PEST_2D_R       CONNECTED TO MODEL PEST_2D_R        PACKAGE CANT             ON UNIT   1028 AT TIME STEP      1, STRESS PERIOD      1
 UBDSV06 SAVING              RIV IN MODEL PEST_2D_R        PACKAGE PEST_2D_R       CONNECTED TO MODEL PEST_2D_R        PACKAGE TECH             ON UNIT   1028 AT TIME STEP      1, STRESS PERIOD      1
 UBDSV06 SAVING              RIV IN MODEL PEST_2D_R        PACKAGE PEST_2D_R       CONNECTED TO MODEL PEST_2D_R        PACKAGE BOL              ON UNIT   1028 AT TIME STEP      1, STRESS PERIOD      1
 UBDSV06 SAVING              RCH IN MODEL PEST_2D_R        PACKAGE PEST_2D_R       CONNECTED TO MODEL PEST_2D_R        PACKAGE RCHA             ON UNIT   1028 AT TIME STEP      1, STRESS PERIOD      1
 UBDSV06 SAVING              RCH IN MODEL PEST_2D_R        PACKAGE PEST_2D_R       CONNECTED TO MODEL PEST_2D_R        PACKAGE P_AG             ON UNIT   1028 AT TIME STEP      1, STRESS PERIOD      1
 UBDSV06 SAVING              RCH IN MODEL PEST_2D_R        PACKAGE PEST_2D_R       CONNECTED TO MODEL PEST_2D_R        PACKAGE IRR              ON UNIT   1028 AT TIME STEP      1, STRESS PERIOD      1
 UBDSV06 SAVING              CHD IN MODEL PEST_2D_R        PACKAGE PEST_2D_R       CONNECTED TO MODEL PEST_2D_R        PACKAGE THUIR            ON UNIT   1028 AT TIME STEP      1, STRESS PERIOD      1
 UBDSV06 SAVING              CHD IN MODEL PEST_2D_R        PACKAGE PEST_2D_R       CONNECTED TO MODEL PEST_2D_R        PACKAGE SEA              ON UNIT   1028 AT TIME STEP      1, STRESS PERIOD      1

 HEAD WILL BE SAVED ON UNIT 1029 AT END OF TIME STEP    1, STRESS PERIOD    1


  VOLUME BUDGET FOR ENTIRE MODEL AT END OF TIME STEP    1, STRESS PERIOD   1
  ---------------------------------------------------------------------------------------------------

     CUMULATIVE VOLUME      L**3       RATES FOR THIS TIME STEP      L**3/T          PACKAGE NAME    
     ------------------                 ------------------------                     ----------------

           IN:                                      IN:
           ---                                      ---
                 WEL =           0.0000                   WEL =           0.0000     WEL             
                 WEL =           0.2000                   WEL =           0.2000     CORB            
                 DRN =           0.0000                   DRN =           0.0000     ETA             
                 RIV =       2.1214E-03                   RIV =       2.1214E-03     AGY             
                 RIV =       8.8966E-02                   RIV =       8.8966E-02     TET             
                 RIV =           0.1096                   RIV =           0.1096     REA             
                 RIV =       4.0925E-02                   RIV =       4.0925E-02     CANT            
                 RIV =       5.5657E-02                   RIV =       5.5657E-02     TECH            
                 RIV =           0.1059                   RIV =           0.1059     BOL             
                 RCH =           3.0365                   RCH =           3.0365     RCHA            
                 RCH =           0.0000                   RCH =           0.0000     P_AG            
                 RCH =           0.4966                   RCH =           0.4966     IRR             
                 CHD =       2.2387E-02                   CHD =       2.2387E-02     THUIR           
                 CHD =       5.7219E-03                   CHD =       5.7219E-03     SEA             

            TOTAL IN =           4.1643              TOTAL IN =           4.1643

          OUT:                                     OUT:
          ----                                     ----
                 WEL =           1.5165                   WEL =           1.5165     WEL             
                 WEL =           0.0000                   WEL =           0.0000     CORB            
                 DRN =           0.2928                   DRN =           0.2928     ETA             
                 RIV =           0.3747                   RIV =           0.3747     AGY             
                 RIV =           0.4965                   RIV =           0.4965     TET             
                 RIV =           0.1446                   RIV =           0.1446     REA             
                 RIV =           0.1359                   RIV =           0.1359     CANT            
                 RIV =           0.2281                   RIV =           0.2281     TECH            
                 RIV =       6.9737E-02                   RIV =       6.9737E-02     BOL             
                 RCH =           0.0000                   RCH =           0.0000     RCHA            
                 RCH =           0.6822                   RCH =           0.6822     P_AG            
                 RCH =           0.0000                   RCH =           0.0000     IRR             
                 CHD =       2.9582E-02                   CHD =       2.9582E-02     THUIR           
                 CHD =           0.1933                   CHD =           0.1933     SEA             

           TOTAL OUT =           4.1640             TOTAL OUT =           4.1640

            IN - OUT =       2.9374E-04              IN - OUT =       2.9374E-04

 PERCENT DISCREPANCY =           0.01     PERCENT DISCREPANCY =           0.01




         TIME SUMMARY AT END OF TIME STEP    1 IN STRESS PERIOD    1
                    SECONDS     MINUTES      HOURS       DAYS        YEARS
                    -----------------------------------------------------------
   TIME STEP LENGTH  1.0000     1.66667E-02 2.77778E-04 1.15741E-05 3.16881E-08
 STRESS PERIOD TIME  1.0000     1.66667E-02 2.77778E-04 1.15741E-05 3.16881E-08
         TOTAL TIME  1.0000     1.66667E-02 2.77778E-04 1.15741E-05 3.16881E-08
