                                   MODFLOW 6
                U.S. GEOLOGICAL SURVEY MODULAR HYDROLOGIC MODEL
                          GROUNDWATER FLOW MODEL (GWF)
                            VERSION 6.0.4 03/13/2019

   MODFLOW 6 compiled Mar 21 2019 15:37:31 with IFORT compiler (ver. 19.0.0)

This software has been approved for release by the U.S. Geological 
Survey (USGS). Although the software has been subjected to rigorous 
review, the USGS reserves the right to update the software as needed 
pursuant to further analysis and review. No warranty, expressed or 
implied, is made by the USGS or the U.S. Government as to the 
functionality of the software and related material nor shall the 
fact of release constitute any such warranty. Furthermore, the 
software is released on condition that neither the USGS nor the U.S. 
Government shall be held liable for any damages resulting from its 
authorized or unauthorized use. Also refer to the USGS Water 
Resources Software User Rights Notice for complete use, copyright, 
and distribution information.


MODFLOW was compiled using uniform precision.
Precision of REAL variables: 15


 OPENED dis_test.dis
 FILE TYPE:DIS6                   UNIT 1005   STATUS:OLD                 
 FORMAT:FORMATTED              ACCESS:SEQUENTIAL          
 ACTION:READ                


 OPENED dis_test.ic
 FILE TYPE:IC6                    UNIT 1006   STATUS:OLD                 
 FORMAT:FORMATTED              ACCESS:SEQUENTIAL          
 ACTION:READ                


 OPENED dis_test.npf
 FILE TYPE:NPF6                   UNIT 1007   STATUS:OLD                 
 FORMAT:FORMATTED              ACCESS:SEQUENTIAL          
 ACTION:READ                


 OPENED dis_test.rcha
 FILE TYPE:RCH6                   UNIT 1008   STATUS:OLD                 
 FORMAT:FORMATTED              ACCESS:SEQUENTIAL          
 ACTION:READ                


 OPENED dis_test.oc
 FILE TYPE:OC6                    UNIT 1009   STATUS:OLD                 
 FORMAT:FORMATTED              ACCESS:SEQUENTIAL          
 ACTION:READ                


 OPENED dis_test.chd
 FILE TYPE:CHD6                   UNIT 1010   STATUS:OLD                 
 FORMAT:FORMATTED              ACCESS:SEQUENTIAL          
 ACTION:READ                


 DIS -- STRUCTURED GRID DISCRETIZATION PACKAGE, VERSION 2 : 3/27/2014 - INPUT READ FROM UNIT 1005


 PROCESSING DISCRETIZATION OPTIONS
    XORIGIN SPECIFIED AS     660000.000000000    
    YORIGIN SPECIFIED AS     6150000.00000000    
 END OF DISCRETIZATION OPTIONS
 MODEL LENGTH UNIT IS UNDEFINED
 PROCESSING DISCRETIZATION DIMENSIONS
    NLAY =       1
    NROW =     140
    NCOL =     140
 END OF DISCRETIZATION DIMENSIONS
 PROCESSING GRIDDATA

   MODEL LAYER BOTTOM EL. =  -50.00000    
 END PROCESSING GRIDDATA

 THE SPECIFIED IDOMAIN RESULTS IN A REDUCED NUMBER OF CELLS.
 NUMBER OF USER NODES:   19600
 NUMBER OF NODES IN SOLUTION:    7197



 NPF -- NODE PROPERTY FLOW PACKAGE, VERSION 1, 3/30/2015 INPUT READ FROM UNIT 1007


 PROCESSING NPF OPTIONS
    CELL-BY-CELL FLOW INFORMATION WILL BE SAVED TO BINARY FILE WHENEVER ICBCFL IS NOT ZERO.
 END OF NPF OPTIONS

 RCH   -- RCH PACKAGE, VERSION 8, 2/22/2014 INPUT READ FROM UNIT 1008

 PROCESSING RCH OPTIONS
    RECHARGE INPUT WILL BE READ AS ARRAY(S).
 END OF RCH OPTIONS

 CHD   -- CHD PACKAGE, VERSION 8, 2/22/2014 INPUT READ FROM UNIT 1010

 PROCESSING CHD OPTIONS
    FLOWS WILL BE SAVED TO BUDGET FILE SPECIFIED IN OUTPUT CONTROL
 END OF CHD OPTIONS

 PROCESSING CHD DIMENSIONS
    MAXBOUND =     141
 END OF CHD DIMENSIONS

 IC -- INITIAL CONDITIONS PACKAGE, VERSION 8, 3/28/2015 INPUT READ FROM UNIT 1006
 PROCESSING GRIDDATA

     INITIAL HEAD =   1.000000    
 END PROCESSING GRIDDATA
 PROCESSING GRIDDATA

                ICELLTYPE = 0

                        K =  0.1000000E-03
 K33 not provided.  Assuming K33 = K.
 K22 not provided.  Assuming K22 = K.
 END PROCESSING GRIDDATA
    BINARY GRID INFORMATION WILL BE WRITTEN TO:
      UNIT NUMBER: 1012
      FILE NAME: C:\Users\emmal\Documents\GitHub\TM_Ludovic_Schorpp\codes_tests\Modeles2D\test_premier_model\workingDis\dis_test.dis.grb

 OPENED C:\Users\emmal\Documents\GitHub\TM_Ludovic_Schorpp\codes_tests\Modeles2D\test_premier_model\workingDis\dis_test.dis.grb
 FILE TYPE:DATA(BINARY)   UNIT 1012   STATUS:REPLACE             
 FORMAT:UNFORMATTED            ACCESS:STREAM              
 ACTION:READWRITE           

      THE LAST TIME STEP WILL BE PRINTED
      THE LAST TIME STEP WILL BE PRINTED
 PROCESSING OC OPTIONS
    BUDGET INFORMATION WILL BE WRITTEN TO:
      UNIT NUMBER: 1013
      FILE NAME: dis_test.cbc

 OPENED dis_test.cbc
 FILE TYPE:DATA(BINARY)   UNIT 1013   STATUS:REPLACE             
 FORMAT:UNFORMATTED            ACCESS:STREAM              
 ACTION:READWRITE           

    HEAD INFORMATION WILL BE WRITTEN TO:
      UNIT NUMBER: 1014
      FILE NAME: dis_test.hds

 OPENED dis_test.hds
 FILE TYPE:DATA(BINARY)   UNIT 1014   STATUS:REPLACE             
 FORMAT:UNFORMATTED            ACCESS:STREAM              
 ACTION:READWRITE           

 END OF OC OPTIONS

 BEGIN READING OUTPUT CONTROL FOR STRESS PERIOD 1
      THE LAST TIME STEP WILL BE SAVED
      THE LAST TIME STEP WILL BE SAVED
      THE LAST TIME STEP WILL BE PRINTED
      THE LAST TIME STEP WILL BE PRINTED

 END READING OUTPUT CONTROL FOR STRESS PERIOD 1

                 RECHARGE =  0.3170979E-08
 UBDSV1 SAVING     FLOW-JA-FACE ON UNIT   1013 AT TIME STEP      1, STRESS PERIOD      1
 UBDSV06 SAVING       DATA-SPDIS IN MODEL DIS_TEST         PACKAGE NPF             CONNECTED TO MODEL DIS_TEST         PACKAGE NPF              ON UNIT   1013 AT TIME STEP      1, STRESS PERIOD      1
 UBDSV06 SAVING              CHD IN MODEL DIS_TEST         PACKAGE DIS_TEST        CONNECTED TO MODEL DIS_TEST         PACKAGE CHD              ON UNIT   1013 AT TIME STEP      1, STRESS PERIOD      1
1
  HEAD IN LAYER   1 AT END OF TIME STEP   1 IN STRESS PERIOD    1
  ---------------------------------------------------------------------------

            1           2           3           4           5           6           7           8           9          10
           11          12          13          14          15          16          17          18          19          20
           21          22          23          24          25          26          27          28          29          30
           31          32          33          34          35          36          37          38          39          40
           41          42          43          44          45          46          47          48          49          50
           51          52          53          54          55          56          57          58          59          60
           61          62          63          64          65          66          67          68          69          70
           71          72          73          74          75          76          77          78          79          80
           81          82          83          84          85          86          87          88          89          90
           91          92          93          94          95          96          97          98          99         100
          101         102         103         104         105         106         107         108         109         110
          111         112         113         114         115         116         117         118         119         120
          121         122         123         124         125         126         127         128         129         130
          131         132         133         134         135         136         137         138         139         140
 ........................................................................................................................
   1   1.0000E+30  1.0000E+30  1.0000E+30  1.0000E+30  1.0000E+30  1.0000E+30  1.0000E+30  1.0000E+30  1.0000E+30  1.0000E+30
       1.0000E+30  1.0000E+30  1.0000E+30  1.0000E+30  1.0000E+30  1.0000E+30  1.0000E+30  1.0000E+30  1.0000E+30  1.0000E+30
       1.0000E+30  1.0000E+30  1.0000E+30  1.0000E+30  1.0000E+30  1.0000E+30  1.0000E+30  1.0000E+30  1.0000E+30  1.0000E+30
       1.0000E+30  1.0000E+30  1.0000E+30  1.0000E+30  1.0000E+30  1.0000E+30  1.0000E+30  1.0000E+30  1.0000E+30  1.0000E+30
       1.0000E+30  1.0000E+30  1.0000E+30  1.0000E+30  1.0000E+30  1.0000E+30  1.0000E+30  1.0000E+30  1.0000E+30  1.0000E+30
       1.0000E+30  1.0000E+30  1.0000E+30  1.0000E+30  1.0000E+30  1.0000E+30  1.0000E+30  1.0000E+30  1.0000E+30  1.0000E+30
       1.0000E+30  1.0000E+30  1.0000E+30  1.0000E+30  1.0000E+30  1.0000E+30  1.0000E+30  1.0000E+30  1.0000E+30  1.0000E+30
       1.0000E+30  1.0000E+30  1.0000E+30  1.0000E+30  1.0000E+30  1.0000E+30  1.0000E+30  1.0000E+30  1.0000E+30  1.0000E+30
       1.0000E+30  1.0000E+30  1.0000E+30  1.0000E+30  1.0000E+30  1.0000E+30  1.0000E+30  1.0000E+30  1.0000E+30  1.0000E+30
       1.0000E+30  1.0000E+30  1.0000E+30  1.0000E+30  1.0000E+30  1.0000E+30  1.0000E+30  1.0000E+30  1.0000E+30  1.0000E+30
       1.0000E+30  1.0000E+30  1.0000E+30  1.0000E+30  1.0000E+30  1.0000E+30  1.0000E+30  1.0000E+30  1.0000E+30  1.0000E+30
       1.0000E+30  1.0000E+30  1.0000E+30  1.0000E+30  1.0000E+30  1.0000E+30  1.0000E+30  1.0000E+30  1.0000E+30  1.0000E+30
       1.0000E+30  1.0000E+30  1.0000E+30  1.0000E+30  1.0000E+30  1.0000E+30  1.0000E+30  1.0000E+30  1.0000E+30  1.0000E+30
       1.0000E+30  1.0000E+30  1.0000E+30  1.0000E+30  1.0000E+30  1.0000E+30  1.0000E+30  1.0000E+30  1.0000E+30  1.0000E+30
   2   1.0000E+30  1.0000E+30  1.0000E+30  1.0000E+30  1.0000E+30  1.0000E+30  1.0000E+30  1.0000E+30  1.0000E+30  1.0000E+30
       1.0000E+30  1.0000E+30  1.0000E+30  1.0000E+30  1.0000E+30  1.0000E+30  1.0000E+30  1.0000E+30  1.0000E+30  1.0000E+30
       1.0000E+30  1.0000E+30  1.0000E+30  1.0000E+30  1.0000E+30  1.0000E+30  1.0000E+30  1.0000E+30  1.0000E+30  1.0000E+30
       1.0000E+30  1.0000E+30  1.0000E+30  1.0000E+30  1.0000E+30  1.0000E+30  1.0000E+30  1.0000E+30  1.0000E+30  1.0000E+30
       1.0000E+30  1.0000E+30  1.0000E+30  1.0000E+30  1.0000E+30  1.0000E+30  1.0000E+30  1.0000E+30  1.0000E+30  1.0000E+30
       1.0000E+30  1.0000E+30  1.0000E+30  1.0000E+30  1.0000E+30  1.0000E+30  1.0000E+30  1.0000E+30  1.0000E+30  1.0000E+30
       1.0000E+30  1.0000E+30  1.0000E+30  1.0000E+30  1.0000E+30  1.0000E+30  1.0000E+30  1.0000E+30  1.0000E+30  1.0000E+30
       1.0000E+30  1.0000E+30  1.0000E+30  1.0000E+30  1.0000E+30  1.0000E+30  1.0000E+30  1.0000E+30  1.0000E+30  1.0000E+30
       1.0000E+30  1.0000E+30  1.0000E+30  1.0000E+30  1.0000E+30  1.0000E+30  1.0000E+30  1.0000E+30  1.0000E+30  1.0000E+30
       1.0000E+30  1.0000E+30  1.0000E+30  1.0000E+30  1.0000E+30  1.0000E+30  1.0000E+30  1.0000E+30  1.0000E+30  1.0000E+30
       1.0000E+30  1.0000E+30  1.0000E+30  1.0000E+30  1.0000E+30  1.0000E+30  1.0000E+30  1.0000E+30  1.0000E+30  1.0000E+30
       1.0000E+30  1.0000E+30  1.0000E+30  1.0000E+30  1.0000E+30  1.0000E+30  1.0000E+30  1.0000E+30  1.0000E+30  1.0000E+30
       1.0000E+30  1.0000E+30  1.0000E+30  1.0000E+30  1.0000E+30  1.0000E+30  1.0000E+30  1.0000E+30  1.0000E+30  1.0000E+30
       1.0000E+30  1.0000E+30  1.0000E+30  1.0000E+30  1.0000E+30  1.0000E+30  1.0000E+30  1.0000E+30  1.0000E+30  1.0000E+30
   3   1.0000E+30  1.0000E+30  1.0000E+30  1.0000E+30  1.0000E+30  1.0000E+30  1.0000E+30  1.0000E+30  1.0000E+30  1.0000E+30
       1.0000E+30  1.0000E+30  1.0000E+30  1.0000E+30  1.0000E+30  1.0000E+30  1.0000E+30  1.0000E+30  1.0000E+30  1.0000E+30
       1.0000E+30  1.0000E+30  1.0000E+30  1.0000E+30  1.0000E+30  1.0000E+30  1.0000E+30  1.0000E+30  1.0000E+30  1.0000E+30
       1.0000E+30  1.0000E+30  1.0000E+30  1.0000E+30  1.0000E+30  1.0000E+30  1.0000E+30  1.0000E+30  1.0000E+30  1.0000E+30
       1.0000E+30  1.0000E+30  1.0000E+30  1.0000E+30  1.0000E+30  1.0000E+30  1.0000E+30  1.0000E+30  1.0000E+30  1.0000E+30
       1.0000E+30  1.0000E+30  1.0000E+30  1.0000E+30  1.0000E+30  1.0000E+30  1.0000E+30  1.0000E+30  1.0000E+30  1.0000E+30
       1.0000E+30  1.0000E+30  1.0000E+30  1.0000E+30  1.0000E+30  1.0000E+30  1.0000E+30  1.0000E+30  1.0000E+30  1.0000E+30
       1.0000E+30  1.0000E+30  1.0000E+30  1.0000E+30  1.0000E+30  1.0000E+30  1.0000E+30  1.0000E+30  1.0000E+30  1.0000E+30
       1.0000E+30  1.0000E+30  1.0000E+30  1.0000E+30  1.0000E+30  1.0000E+30  1.0000E+30  1.0000E+30  1.0000E+30  1.0000E+30
       1.0000E+30  1.0000E+30  1.0000E+30  1.0000E+30  1.0000E+30  1.0000E+30  1.0000E+30  1.0000E+30  1.0000E+30  1.0000E+30
       1.0000E+30  1.0000E+30  1.0000E+30  1.0000E+30  1.0000E+30  1.0000E+30  1.0000E+30  1.0000E+30  1.0000E+30  1.0000E+30
       1.0000E+30  1.0000E+30  1.0000E+30  1.0000E+30  1.0000E+30  1.0000E+30  1.0000E+30  1.0000E+30  1.0000E+30  1.0000E+30
       1.0000E+30  1.0000E+30  1.0000E+30  1.0000E+30  1.0000E+30  1.0000E+30  1.0000E+30  1.0000E+30  1.0000E+30  1.0000E+30
        0.000       0.000      1.0000E+30  1.0000E+30  1.0000E+30  1.0000E+30  1.0000E+30  1.0000E+30  1.0000E+30  1.0000E+30
   4   1.0000E+30  1.0000E+30  1.0000E+30  1.0000E+30  1.0000E+30  1.0000E+30  1.0000E+30  1.0000E+30  1.0000E+30  1.0000E+30
       1.0000E+30  1.0000E+30  1.0000E+30  1.0000E+30  1.0000E+30  1.0000E+30  1.0000E+30  1.0000E+30  1.0000E+30  1.0000E+30
       1.0000E+30  1.0000E+30  1.0000E+30  1.0000E+30  1.0000E+30  1.0000E+30  1.0000E+30  1.0000E+30  1.0000E+30  1.0000E+30
       1.0000E+30  1.0000E+30  1.0000E+30  1.0000E+30  1.0000E+30  1.0000E+30  1.0000E+30  1.0000E+30  1.0000E+30  1.0000E+30
       1.0000E+30  1.0000E+30  1.0000E+30  1.0000E+30  1.0000E+30  1.0000E+30  1.0000E+30  1.0000E+30  1.0000E+30  1.0000E+30
       1.0000E+30  1.0000E+30  1.0000E+30  1.0000E+30  1.0000E+30  1.0000E+30  1.0000E+30  1.0000E+30  1.0000E+30  1.0000E+30
       1.0000E+30  1.0000E+30  1.0000E+30  1.0000E+30  1.0000E+30  1.0000E+30  1.0000E+30  1.0000E+30  1.0000E+30  1.0000E+30
       1.0000E+30  1.0000E+30  1.0000E+30  1.0000E+30  1.0000E+30  1.0000E+30  1.0000E+30  1.0000E+30  1.0000E+30  1.0000E+30
       1.0000E+30  1.0000E+30  1.0000E+30  1.0000E+30  1.0000E+30  1.0000E+30  1.0000E+30  1.0000E+30  1.0000E+30  1.0000E+30
       1.0000E+30  1.0000E+30  1.0000E+30  1.0000E+30  1.0000E+30  1.0000E+30  1.0000E+30  1.0000E+30  1.0000E+30  1.0000E+30
       1.0000E+30  1.0000E+30  1.0000E+30  1.0000E+30  1.0000E+30  1.0000E+30  1.0000E+30  1.0000E+30  1.0000E+30  1.0000E+30
       1.0000E+30  1.0000E+30  1.0000E+30  1.0000E+30  1.0000E+30  1.0000E+30  1.0000E+30  1.0000E+30  1.0000E+30  1.0000E+30
       1.0000E+30  1.0000E+30  1.0000E+30  1.0000E+30  1.0000E+30  1.0000E+30  1.0000E+30  1.0000E+30   0.000       0.000    
        0.000       0.000       0.000       0.000       0.000      1.0000E+30  1.0000E+30  1.0000E+30  1.0000E+30  1.0000E+30
   5   1.0000E+30  1.0000E+30  1.0000E+30  1.0000E+30  1.0000E+30  1.0000E+30  1.0000E+30  1.0000E+30  1.0000E+30  1.0000E+30
       1.0000E+30  1.0000E+30  1.0000E+30  1.0000E+30  1.0000E+30  1.0000E+30  1.0000E+30  1.0000E+30  1.0000E+30  1.0000E+30
       1.0000E+30  1.0000E+30  1.0000E+30  1.0000E+30  1.0000E+30  1.0000E+30  1.0000E+30  1.0000E+30  1.0000E+30  1.0000E+30
       1.0000E+30  1.0000E+30  1.0000E+30  1.0000E+30  1.0000E+30  1.0000E+30  1.0000E+30  1.0000E+30  1.0000E+30  1.0000E+30
       1.0000E+30  1.0000E+30  1.0000E+30  1.0000E+30  1.0000E+30  1.0000E+30  1.0000E+30  1.0000E+30  1.0000E+30  1.0000E+30
       1.0000E+30  1.0000E+30  1.0000E+30  1.0000E+30  1.0000E+30  1.0000E+30  1.0000E+30  1.0000E+30  1.0000E+30  1.0000E+30
       1.0000E+30  1.0000E+30  1.0000E+30  1.0000E+30  1.0000E+30  1.0000E+30  1.0000E+30  1.0000E+30  1.0000E+30  1.0000E+30
       1.0000E+30  1.0000E+30  1.0000E+30  1.0000E+30  1.0000E+30  1.0000E+30  1.0000E+30  1.0000E+30  1.0000E+30  1.0000E+30
       1.0000E+30  1.0000E+30  1.0000E+30  1.0000E+30  1.0000E+30  1.0000E+30  1.0000E+30  1.0000E+30  1.0000E+30  1.0000E+30
       1.0000E+30  1.0000E+30  1.0000E+30  1.0000E+30  1.0000E+30  1.0000E+30  1.0000E+30  1.0000E+30  1.0000E+30  1.0000E+30
       1.0000E+30  1.0000E+30  1.0000E+30  1.0000E+30  1.0000E+30  1.0000E+30  1.0000E+30  1.0000E+30  1.0000E+30  1.0000E+30
       1.0000E+30  1.0000E+30  1.0000E+30  1.0000E+30  1.0000E+30  1.0000E+30  1.0000E+30  1.0000E+30  1.0000E+30  1.0000E+30
       1.0000E+30  1.0000E+30  1.0000E+30  1.0000E+30  1.0000E+30  1.0000E+30  1.0000E+30   0.000       0.000      0.1379    
       0.1804      0.1849      0.1692      0.1238       0.000       0.000       0.000       0.000      1.0000E+30  1.0000E+30
   6   1.0000E+30  1.0000E+30  1.0000E+30  1.0000E+30  1.0000E+30  1.0000E+30  1.0000E+30  1.0000E+30  1.0000E+30  1.0000E+30
       1.0000E+30  1.0000E+30  1.0000E+30  1.0000E+30  1.0000E+30  1.0000E+30  1.0000E+30  1.0000E+30  1.0000E+30  1.0000E+30
       1.0000E+30  1.0000E+30  1.0000E+30  1.0000E+30  1.0000E+30  1.0000E+30  1.0000E+30  1.0000E+30  1.0000E+30  1.0000E+30
       1.0000E+30  1.0000E+30  1.0000E+30  1.0000E+30  1.0000E+30  1.0000E+30  1.0000E+30  1.0000E+30  1.0000E+30  1.0000E+30
       1.0000E+30  1.0000E+30  1.0000E+30  1.0000E+30  1.0000E+30  1.0000E+30  1.0000E+30  1.0000E+30  1.0000E+30  1.0000E+30
       1.0000E+30  1.0000E+30  1.0000E+30  1.0000E+30  1.0000E+30  1.0000E+30  1.0000E+30  1.0000E+30  1.0000E+30  1.0000E+30
       1.0000E+30  1.0000E+30  1.0000E+30  1.0000E+30  1.0000E+30  1.0000E+30  1.0000E+30  1.0000E+30  1.0000E+30  1.0000E+30
       1.0000E+30  1.0000E+30  1.0000E+30  1.0000E+30  1.0000E+30  1.0000E+30  1.0000E+30  1.0000E+30  1.0000E+30  1.0000E+30
       1.0000E+30  1.0000E+30  1.0000E+30  1.0000E+30  1.0000E+30  1.0000E+30  1.0000E+30  1.0000E+30  1.0000E+30  1.0000E+30
       1.0000E+30  1.0000E+30  1.0000E+30  1.0000E+30  1.0000E+30  1.0000E+30  1.0000E+30  1.0000E+30  1.0000E+30  1.0000E+30
       1.0000E+30  1.0000E+30  1.0000E+30  1.0000E+30  1.0000E+30  1.0000E+30  1.0000E+30  1.0000E+30  1.0000E+30  1.0000E+30
       1.0000E+30  1.0000E+30  1.0000E+30  1.0000E+30  1.0000E+30  1.0000E+30  1.0000E+30  1.0000E+30  1.0000E+30  1.0000E+30
       1.0000E+30  1.0000E+30  1.0000E+30  1.0000E+30  1.0000E+30  1.0000E+30  1.0000E+30  1.0000E+30  1.0000E+30  0.3423    
       0.3499      0.3443      0.3218      0.2800      0.2200      0.1711      0.1107       0.000       0.000      1.0000E+30
   7   1.0000E+30  1.0000E+30  1.0000E+30  1.0000E+30  1.0000E+30  1.0000E+30  1.0000E+30  1.0000E+30  1.0000E+30  1.0000E+30
       1.0000E+30  1.0000E+30  1.0000E+30  1.0000E+30  1.0000E+30  1.0000E+30  1.0000E+30  1.0000E+30  1.0000E+30  1.0000E+30
       1.0000E+30  1.0000E+30  1.0000E+30  1.0000E+30  1.0000E+30  1.0000E+30  1.0000E+30  1.0000E+30  1.0000E+30  1.0000E+30
       1.0000E+30  1.0000E+30  1.0000E+30  1.0000E+30  1.0000E+30  1.0000E+30  1.0000E+30  1.0000E+30  1.0000E+30  1.0000E+30
       1.0000E+30  1.0000E+30  1.0000E+30  1.0000E+30  1.0000E+30  1.0000E+30  1.0000E+30  1.0000E+30  1.0000E+30  1.0000E+30
       1.0000E+30  1.0000E+30  1.0000E+30  1.0000E+30  1.0000E+30  1.0000E+30  1.0000E+30  1.0000E+30  1.0000E+30  1.0000E+30
       1.0000E+30  1.0000E+30  1.0000E+30  1.0000E+30  1.0000E+30  1.0000E+30  1.0000E+30  1.0000E+30  1.0000E+30  1.0000E+30
       1.0000E+30  1.0000E+30  1.0000E+30  1.0000E+30  1.0000E+30  1.0000E+30  1.0000E+30  1.0000E+30  1.0000E+30  1.0000E+30
       1.0000E+30  1.0000E+30  1.0000E+30  1.0000E+30  1.0000E+30  1.0000E+30  1.0000E+30  1.0000E+30  1.0000E+30  1.0000E+30
       1.0000E+30  1.0000E+30  1.0000E+30  1.0000E+30  1.0000E+30  1.0000E+30  1.0000E+30  1.0000E+30  1.0000E+30  1.0000E+30
       1.0000E+30  1.0000E+30  1.0000E+30  1.0000E+30  1.0000E+30  1.0000E+30  1.0000E+30  1.0000E+30  1.0000E+30  1.0000E+30
       1.0000E+30  1.0000E+30  1.0000E+30  1.0000E+30  1.0000E+30  1.0000E+30  1.0000E+30  1.0000E+30  1.0000E+30  1.0000E+30
       1.0000E+30  1.0000E+30  1.0000E+30  1.0000E+30  1.0000E+30  1.0000E+30  1.0000E+30  1.0000E+30  1.0000E+30  0.4753    
       0.4783      0.4726      0.4525      0.4169      0.3662      0.3047      0.2259      0.1246       0.000       0.000    
   8   1.0000E+30  1.0000E+30  1.0000E+30  1.0000E+30  1.0000E+30  1.0000E+30  1.0000E+30  1.0000E+30  1.0000E+30  1.0000E+30
       1.0000E+30  1.0000E+30  1.0000E+30  1.0000E+30  1.0000E+30  1.0000E+30  1.0000E+30  1.0000E+30  1.0000E+30  1.0000E+30
       1.0000E+30  1.0000E+30  1.0000E+30  1.0000E+30  1.0000E+30  1.0000E+30  1.0000E+30  1.0000E+30  1.0000E+30  1.0000E+30
       1.0000E+30  1.0000E+30  1.0000E+30  1.0000E+30  1.0000E+30  1.0000E+30  1.0000E+30  1.0000E+30  1.0000E+30  1.0000E+30
       1.0000E+30  1.0000E+30  1.0000E+30  1.0000E+30  1.0000E+30  1.0000E+30  1.0000E+30  1.0000E+30  1.0000E+30  1.0000E+30
       1.0000E+30  1.0000E+30  1.0000E+30  1.0000E+30  1.0000E+30  1.0000E+30  1.0000E+30  1.0000E+30  1.0000E+30  1.0000E+30
       1.0000E+30  1.0000E+30  1.0000E+30  1.0000E+30  1.0000E+30  1.0000E+30  1.0000E+30  1.0000E+30  1.0000E+30  1.0000E+30
       1.0000E+30  1.0000E+30  1.0000E+30  1.0000E+30  1.0000E+30  1.0000E+30  1.0000E+30  1.0000E+30  1.0000E+30  1.0000E+30
       1.0000E+30  1.0000E+30  1.0000E+30  1.0000E+30  1.0000E+30  1.0000E+30  1.0000E+30  1.0000E+30  1.0000E+30  1.0000E+30
       1.0000E+30  1.0000E+30  1.0000E+30  1.0000E+30  1.0000E+30  1.0000E+30  1.0000E+30  1.0000E+30  1.0000E+30  1.0000E+30
       1.0000E+30  1.0000E+30  1.0000E+30  1.0000E+30  1.0000E+30  1.0000E+30  1.0000E+30  1.0000E+30  1.0000E+30  1.0000E+30
       1.0000E+30  1.0000E+30  1.0000E+30  1.0000E+30  1.0000E+30  1.0000E+30  1.0000E+30  1.0000E+30  1.0000E+30  1.0000E+30
       1.0000E+30  1.0000E+30  1.0000E+30  1.0000E+30  1.0000E+30  1.0000E+30  1.0000E+30  1.0000E+30  1.0000E+30  0.5527    
       0.5675      0.5687      0.5585      0.5289      0.4799      0.4135      0.3262      0.2200      0.1076       0.000    
   9   1.0000E+30  1.0000E+30  1.0000E+30  1.0000E+30  1.0000E+30  1.0000E+30  1.0000E+30  1.0000E+30  1.0000E+30  1.0000E+30
       1.0000E+30  1.0000E+30  1.0000E+30  1.0000E+30  1.0000E+30  1.0000E+30  1.0000E+30  1.0000E+30  1.0000E+30  1.0000E+30
       1.0000E+30  1.0000E+30  1.0000E+30  1.0000E+30  1.0000E+30  1.0000E+30  1.0000E+30  1.0000E+30  1.0000E+30  1.0000E+30
       1.0000E+30  1.0000E+30  1.0000E+30  1.0000E+30  1.0000E+30  1.0000E+30  1.0000E+30  1.0000E+30  1.0000E+30  1.0000E+30
       1.0000E+30  1.0000E+30  1.0000E+30  1.0000E+30  1.0000E+30  1.0000E+30  1.0000E+30  1.0000E+30  1.0000E+30  1.0000E+30
       1.0000E+30  1.0000E+30  1.0000E+30  1.0000E+30  1.0000E+30  1.0000E+30  1.0000E+30  1.0000E+30  1.0000E+30  1.0000E+30
       1.0000E+30  1.0000E+30  1.0000E+30  1.0000E+30  1.0000E+30  1.0000E+30  1.0000E+30  1.0000E+30  1.0000E+30  1.0000E+30
       1.0000E+30  1.0000E+30  1.0000E+30  1.0000E+30  1.0000E+30  1.0000E+30  1.0000E+30  1.0000E+30  1.0000E+30  1.0000E+30
       1.0000E+30  1.0000E+30  1.0000E+30  1.0000E+30  1.0000E+30  1.0000E+30  1.0000E+30  1.0000E+30  1.0000E+30  1.0000E+30
       1.0000E+30  1.0000E+30  1.0000E+30  1.0000E+30  1.0000E+30  1.0000E+30  1.0000E+30  1.0000E+30  1.0000E+30  1.0000E+30
       1.0000E+30  1.0000E+30  1.0000E+30  1.0000E+30  1.0000E+30  1.0000E+30  1.0000E+30  1.0000E+30  1.0000E+30  1.0000E+30
       1.0000E+30  1.0000E+30  1.0000E+30  1.0000E+30  1.0000E+30  1.0000E+30  1.0000E+30  1.0000E+30  1.0000E+30  1.0000E+30
       1.0000E+30  1.0000E+30  1.0000E+30  1.0000E+30  1.0000E+30  1.0000E+30  1.0000E+30  1.0000E+30  1.0000E+30  1.0000E+30
       0.6264      0.6321      0.6468      0.6248      0.5751      0.5012      0.4021      0.2756      0.1398       0.000    
  10   1.0000E+30  1.0000E+30  1.0000E+30  1.0000E+30  1.0000E+30  1.0000E+30  1.0000E+30  1.0000E+30  1.0000E+30  1.0000E+30
       1.0000E+30  1.0000E+30  1.0000E+30  1.0000E+30  1.0000E+30  1.0000E+30  1.0000E+30  1.0000E+30  1.0000E+30  1.0000E+30
       1.0000E+30  1.0000E+30  1.0000E+30  1.0000E+30  1.0000E+30  1.0000E+30  1.0000E+30  1.0000E+30  1.0000E+30  1.0000E+30
       1.0000E+30  1.0000E+30  1.0000E+30  1.0000E+30  1.0000E+30  1.0000E+30  1.0000E+30  1.0000E+30  1.0000E+30  1.0000E+30
       1.0000E+30  1.0000E+30  1.0000E+30  1.0000E+30  1.0000E+30  1.0000E+30  1.0000E+30  1.0000E+30  1.0000E+30  1.0000E+30
       1.0000E+30  1.0000E+30  1.0000E+30  1.0000E+30  1.0000E+30  1.0000E+30  1.0000E+30  1.0000E+30  1.0000E+30  1.0000E+30
       1.0000E+30  1.0000E+30  1.0000E+30  1.0000E+30  1.0000E+30  1.0000E+30  1.0000E+30  1.0000E+30  1.0000E+30  1.0000E+30
       1.0000E+30  1.0000E+30  1.0000E+30  1.0000E+30  1.0000E+30  1.0000E+30  1.0000E+30  1.0000E+30  1.0000E+30  1.0000E+30
       1.0000E+30  1.0000E+30  1.0000E+30  1.0000E+30  1.0000E+30  1.0000E+30  1.0000E+30  1.0000E+30  1.0000E+30  1.0000E+30
       1.0000E+30  1.0000E+30  1.0000E+30  1.0000E+30  1.0000E+30  1.0000E+30  1.0000E+30  1.0000E+30  1.0000E+30  1.0000E+30
       1.0000E+30  1.0000E+30  1.0000E+30  1.0000E+30  1.0000E+30  1.0000E+30  1.0000E+30  1.0000E+30  1.0000E+30  1.0000E+30
       1.0000E+30  1.0000E+30  1.0000E+30  1.0000E+30  1.0000E+30  1.0000E+30  1.0000E+30  1.0000E+30  1.0000E+30  1.0000E+30
       1.0000E+30  1.0000E+30  1.0000E+30  1.0000E+30  1.0000E+30  1.0000E+30  1.0000E+30  1.0000E+30  1.0000E+30  1.0000E+30
       1.0000E+30  1.0000E+30  0.7464      0.7181      0.6652      0.5801      0.4551      0.2966      0.1307       0.000    
  11   1.0000E+30  1.0000E+30  1.0000E+30  1.0000E+30  1.0000E+30  1.0000E+30  1.0000E+30  1.0000E+30  1.0000E+30  1.0000E+30
       1.0000E+30  1.0000E+30  1.0000E+30  1.0000E+30  1.0000E+30  1.0000E+30  1.0000E+30  1.0000E+30  1.0000E+30  1.0000E+30
       1.0000E+30  1.0000E+30  1.0000E+30  1.0000E+30  1.0000E+30  1.0000E+30  1.0000E+30  1.0000E+30  1.0000E+30  1.0000E+30
       1.0000E+30  1.0000E+30  1.0000E+30  1.0000E+30  1.0000E+30  1.0000E+30  1.0000E+30  1.0000E+30  1.0000E+30  1.0000E+30
       1.0000E+30  1.0000E+30  1.0000E+30  1.0000E+30  1.0000E+30  1.0000E+30  1.0000E+30  1.0000E+30  1.0000E+30  1.0000E+30
       1.0000E+30  1.0000E+30  1.0000E+30  1.0000E+30  1.0000E+30  1.0000E+30  1.0000E+30  1.0000E+30  1.0000E+30  1.0000E+30
       1.0000E+30  1.0000E+30  1.0000E+30  1.0000E+30  1.0000E+30  1.0000E+30  1.0000E+30  1.0000E+30  1.0000E+30  1.0000E+30
       1.0000E+30  1.0000E+30  1.0000E+30  1.0000E+30  1.0000E+30  1.0000E+30  1.0000E+30  1.0000E+30  1.0000E+30  1.0000E+30
       1.0000E+30  1.0000E+30  1.0000E+30  1.0000E+30  1.0000E+30  1.0000E+30  1.0000E+30  1.0000E+30  1.0000E+30  1.0000E+30
       1.0000E+30  1.0000E+30  1.0000E+30  1.0000E+30  1.0000E+30  1.0000E+30  1.0000E+30  1.0000E+30  1.0000E+30  1.0000E+30
       1.0000E+30  1.0000E+30  1.0000E+30  1.0000E+30  1.0000E+30  1.0000E+30  1.0000E+30  1.0000E+30  1.0000E+30  1.0000E+30
       1.0000E+30  1.0000E+30  1.0000E+30  1.0000E+30  1.0000E+30  1.0000E+30  1.0000E+30  1.0000E+30  1.0000E+30  1.0000E+30
       1.0000E+30  1.0000E+30  1.0000E+30  1.0000E+30  1.0000E+30  1.0000E+30  1.0000E+30  1.0000E+30  1.0000E+30  1.0000E+30
       1.0000E+30  1.0000E+30  0.8349      0.8116      0.7597      0.6690      0.5042      0.2928       0.000       0.000    
  12   1.0000E+30  1.0000E+30  1.0000E+30  1.0000E+30  1.0000E+30  1.0000E+30  1.0000E+30  1.0000E+30  1.0000E+30  1.0000E+30
       1.0000E+30  1.0000E+30  1.0000E+30  1.0000E+30  1.0000E+30  1.0000E+30  1.0000E+30  1.0000E+30  1.0000E+30  1.0000E+30
       1.0000E+30  1.0000E+30  1.0000E+30  1.0000E+30  1.0000E+30  1.0000E+30  1.0000E+30  1.0000E+30  1.0000E+30  1.0000E+30
       1.0000E+30  1.0000E+30  1.0000E+30  1.0000E+30  1.0000E+30  1.0000E+30  1.0000E+30  1.0000E+30  1.0000E+30  1.0000E+30
       1.0000E+30  1.0000E+30  1.0000E+30  1.0000E+30  1.0000E+30  1.0000E+30  1.0000E+30  1.0000E+30  1.0000E+30  1.0000E+30
       1.0000E+30  1.0000E+30  1.0000E+30  1.0000E+30  1.0000E+30  1.0000E+30  1.0000E+30  1.0000E+30  1.0000E+30  1.0000E+30
       1.0000E+30  1.0000E+30  1.0000E+30  1.0000E+30  1.0000E+30  1.0000E+30  1.0000E+30  1.0000E+30  1.0000E+30  1.0000E+30
       1.0000E+30  1.0000E+30  1.0000E+30  1.0000E+30  1.0000E+30  1.0000E+30  1.0000E+30  1.0000E+30  1.0000E+30  1.0000E+30
       1.0000E+30  1.0000E+30  1.0000E+30  1.0000E+30  1.0000E+30  1.0000E+30  1.0000E+30  1.0000E+30  1.0000E+30  1.0000E+30
       1.0000E+30  1.0000E+30  1.0000E+30  1.0000E+30  1.0000E+30  1.0000E+30  1.0000E+30  1.0000E+30  1.0000E+30  1.0000E+30
       1.0000E+30  1.0000E+30  1.0000E+30  1.0000E+30  1.0000E+30  1.0000E+30  1.0000E+30  1.0000E+30  1.0000E+30  1.0000E+30
       1.0000E+30  1.0000E+30  1.0000E+30  1.0000E+30  1.0000E+30  1.0000E+30  1.0000E+30  1.0000E+30  1.0000E+30  1.0000E+30
       1.0000E+30  1.0000E+30  1.0000E+30  1.0000E+30  1.0000E+30  1.0000E+30  1.0000E+30  1.0000E+30  1.0000E+30  1.0000E+30
       1.0000E+30  1.0000E+30  0.8916      0.8800      0.8565      0.8389      0.6388      0.3577       0.000      1.0000E+30
  13   1.0000E+30  1.0000E+30  1.0000E+30  1.0000E+30  1.0000E+30  1.0000E+30  1.0000E+30  1.0000E+30  1.0000E+30  1.0000E+30
       1.0000E+30  1.0000E+30  1.0000E+30  1.0000E+30  1.0000E+30  1.0000E+30  1.0000E+30  1.0000E+30  1.0000E+30  1.0000E+30
       1.0000E+30  1.0000E+30  1.0000E+30  1.0000E+30  1.0000E+30  1.0000E+30  1.0000E+30  1.0000E+30  1.0000E+30  1.0000E+30
       1.0000E+30  1.0000E+30  1.0000E+30  1.0000E+30  1.0000E+30  1.0000E+30  1.0000E+30  1.0000E+30  1.0000E+30  1.0000E+30
       1.0000E+30  1.0000E+30  1.0000E+30  1.0000E+30  1.0000E+30  1.0000E+30  1.0000E+30  1.0000E+30  1.0000E+30  1.0000E+30
       1.0000E+30  1.0000E+30  1.0000E+30  1.0000E+30  1.0000E+30  1.0000E+30  1.0000E+30  1.0000E+30  1.0000E+30  1.0000E+30
       1.0000E+30  1.0000E+30  1.0000E+30  1.0000E+30  1.0000E+30  1.0000E+30  1.0000E+30  1.0000E+30  1.0000E+30  1.0000E+30
       1.0000E+30  1.0000E+30  1.0000E+30  1.0000E+30  1.0000E+30  1.0000E+30  1.0000E+30  1.0000E+30  1.0000E+30  1.0000E+30
       1.0000E+30  1.0000E+30  1.0000E+30  1.0000E+30  1.0000E+30  1.0000E+30  1.0000E+30  1.0000E+30  1.0000E+30  1.0000E+30
       1.0000E+30  1.0000E+30  1.0000E+30  1.0000E+30  1.0000E+30  1.0000E+30  1.0000E+30  1.0000E+30  1.0000E+30  1.0000E+30
       1.0000E+30  1.0000E+30  1.0000E+30  1.0000E+30  1.0000E+30  1.0000E+30  1.0000E+30  1.0000E+30  1.0000E+30  1.0000E+30
       1.0000E+30  1.0000E+30  1.0000E+30  1.0000E+30  1.0000E+30  1.0000E+30  1.0000E+30  1.0000E+30  1.0000E+30  1.0000E+30
       1.0000E+30  1.0000E+30  1.0000E+30  1.0000E+30  1.0000E+30  1.0000E+30  1.0000E+30  1.0000E+30  1.0000E+30  1.0000E+30
       1.0000E+30  1.0000E+30  1.0000E+30  1.0000E+30  1.0000E+30   1.221      0.8774      0.4422       0.000      1.0000E+30
  14   1.0000E+30  1.0000E+30  1.0000E+30  1.0000E+30  1.0000E+30  1.0000E+30  1.0000E+30  1.0000E+30  1.0000E+30  1.0000E+30
       1.0000E+30  1.0000E+30  1.0000E+30  1.0000E+30  1.0000E+30  1.0000E+30  1.0000E+30  1.0000E+30  1.0000E+30  1.0000E+30
       1.0000E+30  1.0000E+30  1.0000E+30  1.0000E+30  1.0000E+30  1.0000E+30  1.0000E+30  1.0000E+30  1.0000E+30  1.0000E+30
       1.0000E+30  1.0000E+30  1.0000E+30  1.0000E+30  1.0000E+30  1.0000E+30  1.0000E+30  1.0000E+30  1.0000E+30  1.0000E+30
       1.0000E+30  1.0000E+30  1.0000E+30  1.0000E+30  1.0000E+30  1.0000E+30  1.0000E+30  1.0000E+30  1.0000E+30  1.0000E+30
       1.0000E+30  1.0000E+30  1.0000E+30  1.0000E+30  1.0000E+30  1.0000E+30  1.0000E+30  1.0000E+30  1.0000E+30  1.0000E+30
       1.0000E+30  1.0000E+30  1.0000E+30  1.0000E+30  1.0000E+30  1.0000E+30  1.0000E+30  1.0000E+30  1.0000E+30  1.0000E+30
       1.0000E+30  1.0000E+30  1.0000E+30  1.0000E+30  1.0000E+30  1.0000E+30  1.0000E+30  1.0000E+30  1.0000E+30  1.0000E+30
       1.0000E+30  1.0000E+30  1.0000E+30  1.0000E+30  1.0000E+30  1.0000E+30  1.0000E+30  1.0000E+30  1.0000E+30  1.0000E+30
       1.0000E+30  1.0000E+30  1.0000E+30  1.0000E+30  1.0000E+30  1.0000E+30  1.0000E+30  1.0000E+30  1.0000E+30  1.0000E+30
       1.0000E+30  1.0000E+30  1.0000E+30  1.0000E+30  1.0000E+30  1.0000E+30  1.0000E+30  1.0000E+30  1.0000E+30  1.0000E+30
       1.0000E+30  1.0000E+30  1.0000E+30  1.0000E+30  1.0000E+30  1.0000E+30  1.0000E+30  1.0000E+30  1.0000E+30  1.0000E+30
       1.0000E+30  1.0000E+30  1.0000E+30  1.0000E+30  1.0000E+30  1.0000E+30  1.0000E+30  1.0000E+30  1.0000E+30  1.0000E+30
       1.0000E+30  1.0000E+30  1.0000E+30   3.803       3.103       2.023       1.182      0.4590       0.000      1.0000E+30
  15   1.0000E+30  1.0000E+30  1.0000E+30  1.0000E+30  1.0000E+30  1.0000E+30  1.0000E+30  1.0000E+30  1.0000E+30  1.0000E+30
       1.0000E+30  1.0000E+30  1.0000E+30  1.0000E+30  1.0000E+30  1.0000E+30  1.0000E+30  1.0000E+30  1.0000E+30  1.0000E+30
       1.0000E+30  1.0000E+30  1.0000E+30  1.0000E+30  1.0000E+30  1.0000E+30  1.0000E+30  1.0000E+30  1.0000E+30  1.0000E+30
       1.0000E+30  1.0000E+30  1.0000E+30  1.0000E+30  1.0000E+30  1.0000E+30  1.0000E+30  1.0000E+30  1.0000E+30  1.0000E+30
       1.0000E+30  1.0000E+30  1.0000E+30  1.0000E+30  1.0000E+30  1.0000E+30  1.0000E+30  1.0000E+30  1.0000E+30  1.0000E+30
       1.0000E+30  1.0000E+30  1.0000E+30  1.0000E+30  1.0000E+30  1.0000E+30  1.0000E+30  1.0000E+30  1.0000E+30  1.0000E+30
       1.0000E+30  1.0000E+30  1.0000E+30  1.0000E+30  1.0000E+30  1.0000E+30  1.0000E+30  1.0000E+30  1.0000E+30  1.0000E+30
       1.0000E+30  1.0000E+30  1.0000E+30  1.0000E+30  1.0000E+30  1.0000E+30  1.0000E+30  1.0000E+30  1.0000E+30  1.0000E+30
       1.0000E+30  1.0000E+30  1.0000E+30  1.0000E+30  1.0000E+30  1.0000E+30  1.0000E+30  1.0000E+30  1.0000E+30  1.0000E+30
       1.0000E+30  1.0000E+30  1.0000E+30  1.0000E+30  1.0000E+30  1.0000E+30  1.0000E+30  1.0000E+30  1.0000E+30  1.0000E+30
       1.0000E+30  1.0000E+30  1.0000E+30  1.0000E+30  1.0000E+30  1.0000E+30  1.0000E+30  1.0000E+30  1.0000E+30  1.0000E+30
       1.0000E+30  1.0000E+30  1.0000E+30  1.0000E+30  1.0000E+30  1.0000E+30  1.0000E+30  1.0000E+30  1.0000E+30  1.0000E+30
       1.0000E+30  1.0000E+30  1.0000E+30  1.0000E+30  1.0000E+30   11.85       11.62       11.18       10.54       9.722    
        8.734       7.587       6.273       4.753       3.550       2.372       1.224       0.000       0.000      1.0000E+30
  16   1.0000E+30  1.0000E+30  1.0000E+30  1.0000E+30  1.0000E+30  1.0000E+30  1.0000E+30  1.0000E+30  1.0000E+30  1.0000E+30
       1.0000E+30  1.0000E+30  1.0000E+30  1.0000E+30  1.0000E+30  1.0000E+30  1.0000E+30  1.0000E+30  1.0000E+30  1.0000E+30
       1.0000E+30  1.0000E+30  1.0000E+30  1.0000E+30  1.0000E+30  1.0000E+30  1.0000E+30  1.0000E+30  1.0000E+30  1.0000E+30
       1.0000E+30  1.0000E+30  1.0000E+30  1.0000E+30  1.0000E+30  1.0000E+30  1.0000E+30  1.0000E+30  1.0000E+30  1.0000E+30
       1.0000E+30  1.0000E+30  1.0000E+30  1.0000E+30  1.0000E+30  1.0000E+30  1.0000E+30  1.0000E+30  1.0000E+30  1.0000E+30
       1.0000E+30  1.0000E+30  1.0000E+30  1.0000E+30  1.0000E+30  1.0000E+30  1.0000E+30  1.0000E+30  1.0000E+30  1.0000E+30
       1.0000E+30  1.0000E+30  1.0000E+30  1.0000E+30  1.0000E+30  1.0000E+30  1.0000E+30  1.0000E+30  1.0000E+30  1.0000E+30
       1.0000E+30  1.0000E+30  1.0000E+30  1.0000E+30  1.0000E+30  1.0000E+30  1.0000E+30  1.0000E+30  1.0000E+30  1.0000E+30
       1.0000E+30  1.0000E+30  1.0000E+30  1.0000E+30  1.0000E+30  1.0000E+30  1.0000E+30  1.0000E+30  1.0000E+30  1.0000E+30
       1.0000E+30  1.0000E+30  1.0000E+30  1.0000E+30  1.0000E+30  1.0000E+30  1.0000E+30  1.0000E+30  1.0000E+30  1.0000E+30
       1.0000E+30  1.0000E+30  1.0000E+30  1.0000E+30  1.0000E+30  1.0000E+30  1.0000E+30  1.0000E+30  1.0000E+30  1.0000E+30
       1.0000E+30  1.0000E+30  1.0000E+30  1.0000E+30  1.0000E+30  1.0000E+30  1.0000E+30  1.0000E+30  1.0000E+30  1.0000E+30
       1.0000E+30  1.0000E+30  1.0000E+30  1.0000E+30  1.0000E+30   12.09       11.84       11.38       10.72       9.874    
        8.875       7.737       6.483       5.152       3.862       2.586       1.307       0.000      1.0000E+30  1.0000E+30
  17   1.0000E+30  1.0000E+30  1.0000E+30  1.0000E+30  1.0000E+30  1.0000E+30  1.0000E+30  1.0000E+30  1.0000E+30  1.0000E+30
       1.0000E+30  1.0000E+30  1.0000E+30  1.0000E+30  1.0000E+30  1.0000E+30  1.0000E+30  1.0000E+30  1.0000E+30  1.0000E+30
       1.0000E+30  1.0000E+30  1.0000E+30  1.0000E+30  1.0000E+30  1.0000E+30  1.0000E+30  1.0000E+30  1.0000E+30  1.0000E+30
       1.0000E+30  1.0000E+30  1.0000E+30  1.0000E+30  1.0000E+30  1.0000E+30  1.0000E+30  1.0000E+30  1.0000E+30  1.0000E+30
       1.0000E+30  1.0000E+30  1.0000E+30  1.0000E+30  1.0000E+30  1.0000E+30  1.0000E+30  1.0000E+30  1.0000E+30  1.0000E+30
       1.0000E+30  1.0000E+30  1.0000E+30  1.0000E+30  1.0000E+30  1.0000E+30  1.0000E+30  1.0000E+30  1.0000E+30  1.0000E+30
       1.0000E+30  1.0000E+30  1.0000E+30  1.0000E+30  1.0000E+30  1.0000E+30  1.0000E+30  1.0000E+30  1.0000E+30  1.0000E+30
       1.0000E+30  1.0000E+30  1.0000E+30  1.0000E+30  1.0000E+30  1.0000E+30  1.0000E+30  1.0000E+30  1.0000E+30  1.0000E+30
       1.0000E+30  1.0000E+30  1.0000E+30  1.0000E+30  1.0000E+30  1.0000E+30  1.0000E+30  1.0000E+30  1.0000E+30  1.0000E+30
       1.0000E+30  1.0000E+30  1.0000E+30  1.0000E+30  1.0000E+30  1.0000E+30  1.0000E+30  1.0000E+30  1.0000E+30  1.0000E+30
       1.0000E+30  1.0000E+30  1.0000E+30  1.0000E+30  1.0000E+30  1.0000E+30  1.0000E+30  1.0000E+30  1.0000E+30  1.0000E+30
       1.0000E+30  1.0000E+30  1.0000E+30  1.0000E+30  1.0000E+30  1.0000E+30  1.0000E+30  1.0000E+30  1.0000E+30  1.0000E+30
       1.0000E+30  1.0000E+30  1.0000E+30  1.0000E+30  1.0000E+30   12.59       12.30       11.78       11.06       10.16    
        9.125       7.965       6.709       5.393       4.057       2.711       1.365       0.000      1.0000E+30  1.0000E+30
  18   1.0000E+30  1.0000E+30  1.0000E+30  1.0000E+30  1.0000E+30  1.0000E+30  1.0000E+30  1.0000E+30  1.0000E+30  1.0000E+30
       1.0000E+30  1.0000E+30  1.0000E+30  1.0000E+30  1.0000E+30  1.0000E+30  1.0000E+30  1.0000E+30  1.0000E+30  1.0000E+30
       1.0000E+30  1.0000E+30  1.0000E+30  1.0000E+30  1.0000E+30  1.0000E+30  1.0000E+30  1.0000E+30  1.0000E+30  1.0000E+30
       1.0000E+30  1.0000E+30  1.0000E+30  1.0000E+30  1.0000E+30  1.0000E+30  1.0000E+30  1.0000E+30  1.0000E+30  1.0000E+30
       1.0000E+30  1.0000E+30  1.0000E+30  1.0000E+30  1.0000E+30  1.0000E+30  1.0000E+30  1.0000E+30  1.0000E+30  1.0000E+30
       1.0000E+30  1.0000E+30  1.0000E+30  1.0000E+30  1.0000E+30  1.0000E+30  1.0000E+30  1.0000E+30  1.0000E+30  1.0000E+30
       1.0000E+30  1.0000E+30  1.0000E+30  1.0000E+30  1.0000E+30  1.0000E+30  1.0000E+30  1.0000E+30  1.0000E+30  1.0000E+30
       1.0000E+30  1.0000E+30  1.0000E+30  1.0000E+30  1.0000E+30  1.0000E+30  1.0000E+30  1.0000E+30  1.0000E+30  1.0000E+30
       1.0000E+30  1.0000E+30  1.0000E+30  1.0000E+30  1.0000E+30  1.0000E+30  1.0000E+30  1.0000E+30  1.0000E+30  1.0000E+30
       1.0000E+30  1.0000E+30  1.0000E+30  1.0000E+30  1.0000E+30  1.0000E+30  1.0000E+30  1.0000E+30  1.0000E+30  1.0000E+30
       1.0000E+30  1.0000E+30  1.0000E+30  1.0000E+30  1.0000E+30  1.0000E+30  1.0000E+30  1.0000E+30  1.0000E+30  1.0000E+30
       1.0000E+30  1.0000E+30  1.0000E+30  1.0000E+30  1.0000E+30  1.0000E+30  1.0000E+30  1.0000E+30  1.0000E+30  1.0000E+30
       1.0000E+30  1.0000E+30  1.0000E+30  1.0000E+30  1.0000E+30   13.41       13.02       12.38       11.56       10.57    
        9.458       8.237       6.930       5.565       4.167       2.766       1.381       0.000      1.0000E+30  1.0000E+30
  19   1.0000E+30  1.0000E+30  1.0000E+30  1.0000E+30  1.0000E+30  1.0000E+30  1.0000E+30  1.0000E+30  1.0000E+30  1.0000E+30
       1.0000E+30  1.0000E+30  1.0000E+30  1.0000E+30  1.0000E+30  1.0000E+30  1.0000E+30  1.0000E+30  1.0000E+30  1.0000E+30
       1.0000E+30  1.0000E+30  1.0000E+30  1.0000E+30  1.0000E+30  1.0000E+30  1.0000E+30  1.0000E+30  1.0000E+30  1.0000E+30
       1.0000E+30  1.0000E+30  1.0000E+30  1.0000E+30  1.0000E+30  1.0000E+30  1.0000E+30  1.0000E+30  1.0000E+30  1.0000E+30
       1.0000E+30  1.0000E+30  1.0000E+30  1.0000E+30  1.0000E+30  1.0000E+30  1.0000E+30  1.0000E+30  1.0000E+30  1.0000E+30
       1.0000E+30  1.0000E+30  1.0000E+30  1.0000E+30  1.0000E+30  1.0000E+30  1.0000E+30  1.0000E+30  1.0000E+30  1.0000E+30
       1.0000E+30  1.0000E+30  1.0000E+30  1.0000E+30  1.0000E+30  1.0000E+30  1.0000E+30  1.0000E+30  1.0000E+30  1.0000E+30
       1.0000E+30  1.0000E+30  1.0000E+30  1.0000E+30  1.0000E+30  1.0000E+30  1.0000E+30  1.0000E+30  1.0000E+30  1.0000E+30
       1.0000E+30  1.0000E+30  1.0000E+30  1.0000E+30  1.0000E+30  1.0000E+30  1.0000E+30  1.0000E+30  1.0000E+30  1.0000E+30
       1.0000E+30  1.0000E+30  1.0000E+30  1.0000E+30  1.0000E+30  1.0000E+30  1.0000E+30  1.0000E+30  1.0000E+30  1.0000E+30
       1.0000E+30  1.0000E+30  1.0000E+30  1.0000E+30  1.0000E+30  1.0000E+30  1.0000E+30  1.0000E+30  1.0000E+30  1.0000E+30
       1.0000E+30  1.0000E+30  1.0000E+30  1.0000E+30  1.0000E+30  1.0000E+30  1.0000E+30  1.0000E+30  1.0000E+30  1.0000E+30
       1.0000E+30  1.0000E+30  1.0000E+30  1.0000E+30   15.47       14.73       14.01       13.17       12.19       11.08    
        9.856       8.537       7.141       5.687       4.203       2.740       1.329       0.000      1.0000E+30  1.0000E+30
  20   1.0000E+30  1.0000E+30  1.0000E+30  1.0000E+30  1.0000E+30  1.0000E+30  1.0000E+30  1.0000E+30  1.0000E+30  1.0000E+30
       1.0000E+30  1.0000E+30  1.0000E+30  1.0000E+30  1.0000E+30  1.0000E+30  1.0000E+30  1.0000E+30  1.0000E+30  1.0000E+30
       1.0000E+30  1.0000E+30  1.0000E+30  1.0000E+30  1.0000E+30  1.0000E+30  1.0000E+30  1.0000E+30  1.0000E+30  1.0000E+30
       1.0000E+30  1.0000E+30  1.0000E+30  1.0000E+30  1.0000E+30  1.0000E+30  1.0000E+30  1.0000E+30  1.0000E+30  1.0000E+30
       1.0000E+30  1.0000E+30  1.0000E+30  1.0000E+30  1.0000E+30  1.0000E+30  1.0000E+30  1.0000E+30  1.0000E+30  1.0000E+30
       1.0000E+30  1.0000E+30  1.0000E+30  1.0000E+30  1.0000E+30  1.0000E+30  1.0000E+30  1.0000E+30  1.0000E+30  1.0000E+30
       1.0000E+30  1.0000E+30  1.0000E+30  1.0000E+30  1.0000E+30  1.0000E+30  1.0000E+30  1.0000E+30  1.0000E+30  1.0000E+30
       1.0000E+30  1.0000E+30  1.0000E+30  1.0000E+30  1.0000E+30  1.0000E+30  1.0000E+30  1.0000E+30  1.0000E+30  1.0000E+30
       1.0000E+30  1.0000E+30  1.0000E+30  1.0000E+30  1.0000E+30  1.0000E+30  1.0000E+30  1.0000E+30  1.0000E+30  1.0000E+30
       1.0000E+30  1.0000E+30  1.0000E+30  1.0000E+30  1.0000E+30  1.0000E+30  1.0000E+30  1.0000E+30  1.0000E+30  1.0000E+30
       1.0000E+30  1.0000E+30  1.0000E+30  1.0000E+30  1.0000E+30  1.0000E+30  1.0000E+30  1.0000E+30  1.0000E+30  1.0000E+30
       1.0000E+30  1.0000E+30  1.0000E+30  1.0000E+30  1.0000E+30  1.0000E+30  1.0000E+30  1.0000E+30  1.0000E+30  1.0000E+30
       1.0000E+30  1.0000E+30  1.0000E+30  1.0000E+30   16.45       15.91       15.07       14.06       12.92       11.66    
        10.30       8.855       7.340       5.761       4.167       2.576       1.060       0.000      1.0000E+30  1.0000E+30
  21   1.0000E+30  1.0000E+30  1.0000E+30  1.0000E+30  1.0000E+30  1.0000E+30  1.0000E+30  1.0000E+30  1.0000E+30  1.0000E+30
       1.0000E+30  1.0000E+30  1.0000E+30  1.0000E+30  1.0000E+30  1.0000E+30  1.0000E+30  1.0000E+30  1.0000E+30  1.0000E+30
       1.0000E+30  1.0000E+30  1.0000E+30  1.0000E+30  1.0000E+30  1.0000E+30  1.0000E+30  1.0000E+30  1.0000E+30  1.0000E+30
       1.0000E+30  1.0000E+30  1.0000E+30  1.0000E+30  1.0000E+30  1.0000E+30  1.0000E+30  1.0000E+30  1.0000E+30  1.0000E+30
       1.0000E+30  1.0000E+30  1.0000E+30  1.0000E+30  1.0000E+30  1.0000E+30  1.0000E+30  1.0000E+30  1.0000E+30  1.0000E+30
       1.0000E+30  1.0000E+30  1.0000E+30  1.0000E+30  1.0000E+30  1.0000E+30  1.0000E+30  1.0000E+30  1.0000E+30  1.0000E+30
       1.0000E+30  1.0000E+30  1.0000E+30  1.0000E+30  1.0000E+30  1.0000E+30  1.0000E+30  1.0000E+30  1.0000E+30  1.0000E+30
       1.0000E+30  1.0000E+30  1.0000E+30  1.0000E+30  1.0000E+30  1.0000E+30  1.0000E+30  1.0000E+30  1.0000E+30  1.0000E+30
       1.0000E+30  1.0000E+30  1.0000E+30  1.0000E+30  1.0000E+30  1.0000E+30  1.0000E+30  1.0000E+30  1.0000E+30  1.0000E+30
       1.0000E+30  1.0000E+30  1.0000E+30  1.0000E+30  1.0000E+30  1.0000E+30  1.0000E+30  1.0000E+30  1.0000E+30  1.0000E+30
       1.0000E+30  1.0000E+30  1.0000E+30  1.0000E+30  1.0000E+30  1.0000E+30  1.0000E+30  1.0000E+30  1.0000E+30  1.0000E+30
       1.0000E+30  1.0000E+30  1.0000E+30  1.0000E+30  1.0000E+30  1.0000E+30  1.0000E+30  1.0000E+30  1.0000E+30  1.0000E+30
       1.0000E+30  1.0000E+30  1.0000E+30  1.0000E+30   18.17       17.39       16.31       15.07       13.72       12.28    
        10.77       9.185       7.536       5.834       4.066       2.170       0.000       0.000      1.0000E+30  1.0000E+30
  22   1.0000E+30  1.0000E+30  1.0000E+30  1.0000E+30  1.0000E+30  1.0000E+30  1.0000E+30  1.0000E+30  1.0000E+30  1.0000E+30
       1.0000E+30  1.0000E+30  1.0000E+30  1.0000E+30  1.0000E+30  1.0000E+30  1.0000E+30  1.0000E+30  1.0000E+30  1.0000E+30
       1.0000E+30  1.0000E+30  1.0000E+30  1.0000E+30  1.0000E+30  1.0000E+30  1.0000E+30  1.0000E+30  1.0000E+30  1.0000E+30
       1.0000E+30  1.0000E+30  1.0000E+30  1.0000E+30  1.0000E+30  1.0000E+30  1.0000E+30  1.0000E+30  1.0000E+30  1.0000E+30
       1.0000E+30  1.0000E+30  1.0000E+30  1.0000E+30  1.0000E+30  1.0000E+30  1.0000E+30  1.0000E+30  1.0000E+30  1.0000E+30
       1.0000E+30  1.0000E+30  1.0000E+30  1.0000E+30  1.0000E+30  1.0000E+30  1.0000E+30  1.0000E+30  1.0000E+30  1.0000E+30
       1.0000E+30  1.0000E+30  1.0000E+30  1.0000E+30  1.0000E+30  1.0000E+30  1.0000E+30  1.0000E+30  1.0000E+30  1.0000E+30
       1.0000E+30  1.0000E+30  1.0000E+30  1.0000E+30  1.0000E+30  1.0000E+30  1.0000E+30  1.0000E+30  1.0000E+30  1.0000E+30
       1.0000E+30  1.0000E+30  1.0000E+30  1.0000E+30  1.0000E+30  1.0000E+30  1.0000E+30  1.0000E+30  1.0000E+30  1.0000E+30
       1.0000E+30  1.0000E+30  1.0000E+30  1.0000E+30  1.0000E+30  1.0000E+30  1.0000E+30  1.0000E+30  1.0000E+30  1.0000E+30
       1.0000E+30  1.0000E+30  1.0000E+30  1.0000E+30  1.0000E+30  1.0000E+30  1.0000E+30  1.0000E+30  1.0000E+30  1.0000E+30
       1.0000E+30  1.0000E+30  1.0000E+30  1.0000E+30  1.0000E+30  1.0000E+30  1.0000E+30  1.0000E+30  1.0000E+30  1.0000E+30
       1.0000E+30  1.0000E+30   24.83       23.41       20.99       19.25       17.68       16.13       14.55       12.92    
        11.25       9.516       7.743       5.928       4.040       2.062       0.000      1.0000E+30  1.0000E+30  1.0000E+30
  23   1.0000E+30  1.0000E+30  1.0000E+30  1.0000E+30  1.0000E+30  1.0000E+30  1.0000E+30  1.0000E+30  1.0000E+30  1.0000E+30
       1.0000E+30  1.0000E+30  1.0000E+30  1.0000E+30  1.0000E+30  1.0000E+30  1.0000E+30  1.0000E+30  1.0000E+30  1.0000E+30
       1.0000E+30  1.0000E+30  1.0000E+30  1.0000E+30  1.0000E+30  1.0000E+30  1.0000E+30  1.0000E+30  1.0000E+30  1.0000E+30
       1.0000E+30  1.0000E+30  1.0000E+30  1.0000E+30  1.0000E+30  1.0000E+30  1.0000E+30  1.0000E+30  1.0000E+30  1.0000E+30
       1.0000E+30  1.0000E+30  1.0000E+30  1.0000E+30  1.0000E+30  1.0000E+30  1.0000E+30  1.0000E+30  1.0000E+30  1.0000E+30
       1.0000E+30  1.0000E+30  1.0000E+30  1.0000E+30  1.0000E+30  1.0000E+30  1.0000E+30  1.0000E+30  1.0000E+30  1.0000E+30
       1.0000E+30  1.0000E+30  1.0000E+30  1.0000E+30  1.0000E+30  1.0000E+30  1.0000E+30  1.0000E+30  1.0000E+30  1.0000E+30
       1.0000E+30  1.0000E+30  1.0000E+30  1.0000E+30  1.0000E+30  1.0000E+30  1.0000E+30  1.0000E+30  1.0000E+30  1.0000E+30
       1.0000E+30  1.0000E+30  1.0000E+30  1.0000E+30  1.0000E+30  1.0000E+30  1.0000E+30  1.0000E+30  1.0000E+30  1.0000E+30
       1.0000E+30  1.0000E+30  1.0000E+30  1.0000E+30  1.0000E+30  1.0000E+30  1.0000E+30  1.0000E+30  1.0000E+30  1.0000E+30
       1.0000E+30  1.0000E+30  1.0000E+30  1.0000E+30  1.0000E+30  1.0000E+30  1.0000E+30  1.0000E+30  1.0000E+30  1.0000E+30
       1.0000E+30  1.0000E+30  1.0000E+30  1.0000E+30  1.0000E+30  1.0000E+30  1.0000E+30  1.0000E+30  1.0000E+30  1.0000E+30
        30.63       29.21       26.85       24.80       22.69       20.75       18.92       17.14       15.35       13.55    
        11.71       9.834       7.946       6.024       4.042       2.035       0.000      1.0000E+30  1.0000E+30  1.0000E+30
  24   1.0000E+30  1.0000E+30  1.0000E+30  1.0000E+30  1.0000E+30  1.0000E+30  1.0000E+30  1.0000E+30  1.0000E+30  1.0000E+30
       1.0000E+30  1.0000E+30  1.0000E+30  1.0000E+30  1.0000E+30  1.0000E+30  1.0000E+30  1.0000E+30  1.0000E+30  1.0000E+30
       1.0000E+30  1.0000E+30  1.0000E+30  1.0000E+30  1.0000E+30  1.0000E+30  1.0000E+30  1.0000E+30  1.0000E+30  1.0000E+30
       1.0000E+30  1.0000E+30  1.0000E+30  1.0000E+30  1.0000E+30  1.0000E+30  1.0000E+30  1.0000E+30  1.0000E+30  1.0000E+30
       1.0000E+30  1.0000E+30  1.0000E+30  1.0000E+30  1.0000E+30  1.0000E+30  1.0000E+30  1.0000E+30  1.0000E+30  1.0000E+30
       1.0000E+30  1.0000E+30  1.0000E+30  1.0000E+30  1.0000E+30  1.0000E+30  1.0000E+30  1.0000E+30  1.0000E+30  1.0000E+30
       1.0000E+30  1.0000E+30  1.0000E+30  1.0000E+30  1.0000E+30  1.0000E+30  1.0000E+30  1.0000E+30  1.0000E+30  1.0000E+30
       1.0000E+30  1.0000E+30  1.0000E+30  1.0000E+30  1.0000E+30  1.0000E+30  1.0000E+30  1.0000E+30  1.0000E+30  1.0000E+30
       1.0000E+30  1.0000E+30  1.0000E+30  1.0000E+30  1.0000E+30  1.0000E+30  1.0000E+30  1.0000E+30  1.0000E+30  1.0000E+30
       1.0000E+30  1.0000E+30  1.0000E+30  1.0000E+30  1.0000E+30  1.0000E+30  1.0000E+30  1.0000E+30  1.0000E+30  1.0000E+30
       1.0000E+30  1.0000E+30  1.0000E+30  1.0000E+30  1.0000E+30  1.0000E+30  1.0000E+30  1.0000E+30  1.0000E+30  1.0000E+30
       1.0000E+30  1.0000E+30  1.0000E+30  1.0000E+30  1.0000E+30  1.0000E+30  1.0000E+30  1.0000E+30   36.64       35.12    
        32.66       30.52       28.31       26.17       24.05       22.00       20.01       18.05       16.09       14.12    
        12.13       10.12       8.108       6.074       4.027       2.008       0.000      1.0000E+30  1.0000E+30  1.0000E+30
  25   1.0000E+30  1.0000E+30  1.0000E+30  1.0000E+30  1.0000E+30  1.0000E+30  1.0000E+30  1.0000E+30  1.0000E+30  1.0000E+30
       1.0000E+30  1.0000E+30  1.0000E+30  1.0000E+30  1.0000E+30  1.0000E+30  1.0000E+30  1.0000E+30  1.0000E+30  1.0000E+30
       1.0000E+30  1.0000E+30  1.0000E+30  1.0000E+30  1.0000E+30  1.0000E+30  1.0000E+30  1.0000E+30  1.0000E+30  1.0000E+30
       1.0000E+30  1.0000E+30  1.0000E+30  1.0000E+30  1.0000E+30  1.0000E+30  1.0000E+30  1.0000E+30  1.0000E+30  1.0000E+30
       1.0000E+30  1.0000E+30  1.0000E+30  1.0000E+30  1.0000E+30  1.0000E+30  1.0000E+30  1.0000E+30  1.0000E+30  1.0000E+30
       1.0000E+30  1.0000E+30  1.0000E+30  1.0000E+30  1.0000E+30  1.0000E+30  1.0000E+30  1.0000E+30  1.0000E+30  1.0000E+30
       1.0000E+30  1.0000E+30  1.0000E+30  1.0000E+30  1.0000E+30  1.0000E+30  1.0000E+30  1.0000E+30  1.0000E+30  1.0000E+30
       1.0000E+30  1.0000E+30  1.0000E+30  1.0000E+30  1.0000E+30  1.0000E+30  1.0000E+30  1.0000E+30  1.0000E+30  1.0000E+30
       1.0000E+30  1.0000E+30  1.0000E+30  1.0000E+30  1.0000E+30  1.0000E+30  1.0000E+30  1.0000E+30  1.0000E+30  1.0000E+30
       1.0000E+30  1.0000E+30  1.0000E+30  1.0000E+30  1.0000E+30  1.0000E+30  1.0000E+30  1.0000E+30  1.0000E+30  1.0000E+30
       1.0000E+30  1.0000E+30  1.0000E+30  1.0000E+30  1.0000E+30  1.0000E+30  1.0000E+30  1.0000E+30  1.0000E+30  1.0000E+30
       1.0000E+30  1.0000E+30  1.0000E+30  1.0000E+30   47.07       45.93       44.10       41.73       38.80       36.44    
        34.10       31.83       29.59       27.39       25.21       23.07       20.95       18.85       16.75       14.63    
        12.50       10.35       8.202       6.060       3.925       1.892       0.000      1.0000E+30  1.0000E+30  1.0000E+30
  26   1.0000E+30  1.0000E+30  1.0000E+30  1.0000E+30  1.0000E+30  1.0000E+30  1.0000E+30  1.0000E+30  1.0000E+30  1.0000E+30
       1.0000E+30  1.0000E+30  1.0000E+30  1.0000E+30  1.0000E+30  1.0000E+30  1.0000E+30  1.0000E+30  1.0000E+30  1.0000E+30
       1.0000E+30  1.0000E+30  1.0000E+30  1.0000E+30  1.0000E+30  1.0000E+30  1.0000E+30  1.0000E+30  1.0000E+30  1.0000E+30
       1.0000E+30  1.0000E+30  1.0000E+30  1.0000E+30  1.0000E+30  1.0000E+30  1.0000E+30  1.0000E+30  1.0000E+30  1.0000E+30
       1.0000E+30  1.0000E+30  1.0000E+30  1.0000E+30  1.0000E+30  1.0000E+30  1.0000E+30  1.0000E+30  1.0000E+30  1.0000E+30
       1.0000E+30  1.0000E+30  1.0000E+30  1.0000E+30  1.0000E+30  1.0000E+30  1.0000E+30  1.0000E+30  1.0000E+30  1.0000E+30
       1.0000E+30  1.0000E+30  1.0000E+30  1.0000E+30  1.0000E+30  1.0000E+30  1.0000E+30  1.0000E+30  1.0000E+30  1.0000E+30
       1.0000E+30  1.0000E+30  1.0000E+30  1.0000E+30  1.0000E+30  1.0000E+30  1.0000E+30  1.0000E+30  1.0000E+30  1.0000E+30
       1.0000E+30  1.0000E+30  1.0000E+30  1.0000E+30  1.0000E+30  1.0000E+30  1.0000E+30  1.0000E+30  1.0000E+30  1.0000E+30
       1.0000E+30  1.0000E+30  1.0000E+30  1.0000E+30  1.0000E+30  1.0000E+30  1.0000E+30  1.0000E+30  1.0000E+30  1.0000E+30
       1.0000E+30  1.0000E+30  1.0000E+30  1.0000E+30  1.0000E+30  1.0000E+30  1.0000E+30  1.0000E+30  1.0000E+30  1.0000E+30
       1.0000E+30   53.94       52.89       51.11       48.73       46.78       44.72       42.46       40.02       37.65    
        35.31       33.01       30.73       28.47       26.22       23.99       21.77       19.55       17.32       15.08    
        12.82       10.53       8.208       5.910       3.625       1.482       0.000      1.0000E+30  1.0000E+30  1.0000E+30
  27   1.0000E+30  1.0000E+30  1.0000E+30  1.0000E+30  1.0000E+30  1.0000E+30  1.0000E+30  1.0000E+30  1.0000E+30  1.0000E+30
       1.0000E+30  1.0000E+30  1.0000E+30  1.0000E+30  1.0000E+30  1.0000E+30  1.0000E+30  1.0000E+30  1.0000E+30  1.0000E+30
       1.0000E+30  1.0000E+30  1.0000E+30  1.0000E+30  1.0000E+30  1.0000E+30  1.0000E+30  1.0000E+30  1.0000E+30  1.0000E+30
       1.0000E+30  1.0000E+30  1.0000E+30  1.0000E+30  1.0000E+30  1.0000E+30  1.0000E+30  1.0000E+30  1.0000E+30  1.0000E+30
       1.0000E+30  1.0000E+30  1.0000E+30  1.0000E+30  1.0000E+30  1.0000E+30  1.0000E+30  1.0000E+30  1.0000E+30  1.0000E+30
       1.0000E+30  1.0000E+30  1.0000E+30  1.0000E+30  1.0000E+30  1.0000E+30  1.0000E+30  1.0000E+30  1.0000E+30  1.0000E+30
       1.0000E+30  1.0000E+30  1.0000E+30  1.0000E+30  1.0000E+30  1.0000E+30  1.0000E+30  1.0000E+30  1.0000E+30  1.0000E+30
       1.0000E+30  1.0000E+30  1.0000E+30  1.0000E+30  1.0000E+30  1.0000E+30  1.0000E+30  1.0000E+30  1.0000E+30  1.0000E+30
       1.0000E+30  1.0000E+30  1.0000E+30  1.0000E+30  1.0000E+30  1.0000E+30  1.0000E+30  1.0000E+30  1.0000E+30  1.0000E+30
       1.0000E+30  1.0000E+30  1.0000E+30  1.0000E+30  1.0000E+30  1.0000E+30  1.0000E+30  1.0000E+30  1.0000E+30  1.0000E+30
       1.0000E+30  1.0000E+30  1.0000E+30  1.0000E+30  1.0000E+30  1.0000E+30  1.0000E+30  1.0000E+30   59.85       58.94    
        57.43       55.42       53.70       51.82       49.75       47.69       45.57       43.34       41.03       38.71    
        36.38       34.06       31.74       29.43       27.12       24.81       22.49       20.17       17.83       15.48    
        13.10       10.66       8.188       5.669       3.013       0.000       0.000      1.0000E+30  1.0000E+30  1.0000E+30
  28   1.0000E+30  1.0000E+30  1.0000E+30  1.0000E+30  1.0000E+30  1.0000E+30  1.0000E+30  1.0000E+30  1.0000E+30  1.0000E+30
       1.0000E+30  1.0000E+30  1.0000E+30  1.0000E+30  1.0000E+30  1.0000E+30  1.0000E+30  1.0000E+30  1.0000E+30  1.0000E+30
       1.0000E+30  1.0000E+30  1.0000E+30  1.0000E+30  1.0000E+30  1.0000E+30  1.0000E+30  1.0000E+30  1.0000E+30  1.0000E+30
       1.0000E+30  1.0000E+30  1.0000E+30  1.0000E+30  1.0000E+30  1.0000E+30  1.0000E+30  1.0000E+30  1.0000E+30  1.0000E+30
       1.0000E+30  1.0000E+30  1.0000E+30  1.0000E+30  1.0000E+30  1.0000E+30  1.0000E+30  1.0000E+30  1.0000E+30  1.0000E+30
       1.0000E+30  1.0000E+30  1.0000E+30  1.0000E+30  1.0000E+30  1.0000E+30  1.0000E+30  1.0000E+30  1.0000E+30  1.0000E+30
       1.0000E+30  1.0000E+30  1.0000E+30  1.0000E+30  1.0000E+30  1.0000E+30  1.0000E+30  1.0000E+30  1.0000E+30  1.0000E+30
       1.0000E+30  1.0000E+30  1.0000E+30  1.0000E+30  1.0000E+30  1.0000E+30  1.0000E+30  1.0000E+30  1.0000E+30  1.0000E+30
       1.0000E+30  1.0000E+30  1.0000E+30  1.0000E+30  1.0000E+30  1.0000E+30  1.0000E+30  1.0000E+30  1.0000E+30  1.0000E+30
       1.0000E+30  1.0000E+30  1.0000E+30  1.0000E+30  1.0000E+30  1.0000E+30  1.0000E+30  1.0000E+30  1.0000E+30  1.0000E+30
       1.0000E+30  1.0000E+30  1.0000E+30  1.0000E+30  1.0000E+30  1.0000E+30   63.55       62.71       61.16       59.74    
        58.16       56.39       54.58       52.68       50.67       48.60       46.46       44.25       41.98       39.67    
        37.34       35.00       32.65       30.28       27.91       25.53       23.13       20.72       18.28       15.82    
        13.33       10.80       8.216       5.576       2.843       0.000      1.0000E+30  1.0000E+30  1.0000E+30  1.0000E+30
  29   1.0000E+30  1.0000E+30  1.0000E+30  1.0000E+30  1.0000E+30  1.0000E+30  1.0000E+30  1.0000E+30  1.0000E+30  1.0000E+30
       1.0000E+30  1.0000E+30  1.0000E+30  1.0000E+30  1.0000E+30  1.0000E+30  1.0000E+30  1.0000E+30  1.0000E+30  1.0000E+30
       1.0000E+30  1.0000E+30  1.0000E+30  1.0000E+30  1.0000E+30  1.0000E+30  1.0000E+30  1.0000E+30  1.0000E+30  1.0000E+30
       1.0000E+30  1.0000E+30  1.0000E+30  1.0000E+30  1.0000E+30  1.0000E+30  1.0000E+30  1.0000E+30  1.0000E+30  1.0000E+30
       1.0000E+30  1.0000E+30  1.0000E+30  1.0000E+30  1.0000E+30  1.0000E+30  1.0000E+30  1.0000E+30  1.0000E+30  1.0000E+30
       1.0000E+30  1.0000E+30  1.0000E+30  1.0000E+30  1.0000E+30  1.0000E+30  1.0000E+30  1.0000E+30  1.0000E+30  1.0000E+30
       1.0000E+30  1.0000E+30  1.0000E+30  1.0000E+30  1.0000E+30  1.0000E+30  1.0000E+30  1.0000E+30  1.0000E+30  1.0000E+30
       1.0000E+30  1.0000E+30  1.0000E+30  1.0000E+30  1.0000E+30  1.0000E+30  1.0000E+30  1.0000E+30  1.0000E+30  1.0000E+30
       1.0000E+30  1.0000E+30  1.0000E+30  1.0000E+30  1.0000E+30  1.0000E+30  1.0000E+30  1.0000E+30  1.0000E+30  1.0000E+30
       1.0000E+30  1.0000E+30  1.0000E+30  1.0000E+30  1.0000E+30  1.0000E+30  1.0000E+30  1.0000E+30  1.0000E+30  1.0000E+30
       1.0000E+30  1.0000E+30  1.0000E+30  1.0000E+30  1.0000E+30   65.70       64.71       63.58       62.19       60.70    
        59.08       57.34       55.52       53.60       51.59       49.51       47.36       45.15       42.88       40.57    
        38.23       35.86       33.47       31.06       28.62       26.17       23.70       21.20       18.68       16.12    
        13.54       10.92       8.263       5.549       2.798       0.000      1.0000E+30  1.0000E+30  1.0000E+30  1.0000E+30
  30   1.0000E+30  1.0000E+30  1.0000E+30  1.0000E+30  1.0000E+30  1.0000E+30  1.0000E+30  1.0000E+30  1.0000E+30  1.0000E+30
       1.0000E+30  1.0000E+30  1.0000E+30  1.0000E+30  1.0000E+30  1.0000E+30  1.0000E+30  1.0000E+30  1.0000E+30  1.0000E+30
       1.0000E+30  1.0000E+30  1.0000E+30  1.0000E+30  1.0000E+30  1.0000E+30  1.0000E+30  1.0000E+30  1.0000E+30  1.0000E+30
       1.0000E+30  1.0000E+30  1.0000E+30  1.0000E+30  1.0000E+30  1.0000E+30  1.0000E+30  1.0000E+30  1.0000E+30  1.0000E+30
       1.0000E+30  1.0000E+30  1.0000E+30  1.0000E+30  1.0000E+30  1.0000E+30  1.0000E+30  1.0000E+30  1.0000E+30  1.0000E+30
       1.0000E+30  1.0000E+30  1.0000E+30  1.0000E+30  1.0000E+30  1.0000E+30  1.0000E+30  1.0000E+30  1.0000E+30  1.0000E+30
       1.0000E+30  1.0000E+30  1.0000E+30  1.0000E+30  1.0000E+30  1.0000E+30  1.0000E+30  1.0000E+30  1.0000E+30  1.0000E+30
       1.0000E+30  1.0000E+30  1.0000E+30  1.0000E+30  1.0000E+30  1.0000E+30  1.0000E+30  1.0000E+30  1.0000E+30  1.0000E+30
       1.0000E+30  1.0000E+30  1.0000E+30  1.0000E+30  1.0000E+30  1.0000E+30  1.0000E+30  1.0000E+30  1.0000E+30  1.0000E+30
       1.0000E+30  1.0000E+30  1.0000E+30  1.0000E+30  1.0000E+30  1.0000E+30  1.0000E+30  1.0000E+30  1.0000E+30  1.0000E+30
       1.0000E+30  1.0000E+30  1.0000E+30  1.0000E+30   68.24       67.13       65.97       64.70       63.28       61.74    
        60.09       58.33       56.48       54.54       52.52       50.43       48.26       46.04       43.76       41.43    
        39.06       36.66       34.22       31.76       29.27       26.75       24.20       21.62       19.02       16.37    
        13.71       11.03       8.306       5.546       2.782       0.000      1.0000E+30  1.0000E+30  1.0000E+30  1.0000E+30
  31   1.0000E+30  1.0000E+30  1.0000E+30  1.0000E+30  1.0000E+30  1.0000E+30  1.0000E+30  1.0000E+30  1.0000E+30  1.0000E+30
       1.0000E+30  1.0000E+30  1.0000E+30  1.0000E+30  1.0000E+30  1.0000E+30  1.0000E+30  1.0000E+30  1.0000E+30  1.0000E+30
       1.0000E+30  1.0000E+30  1.0000E+30  1.0000E+30  1.0000E+30  1.0000E+30  1.0000E+30  1.0000E+30  1.0000E+30  1.0000E+30
       1.0000E+30  1.0000E+30  1.0000E+30  1.0000E+30  1.0000E+30  1.0000E+30  1.0000E+30  1.0000E+30  1.0000E+30  1.0000E+30
       1.0000E+30  1.0000E+30  1.0000E+30  1.0000E+30  1.0000E+30  1.0000E+30  1.0000E+30  1.0000E+30  1.0000E+30  1.0000E+30
       1.0000E+30  1.0000E+30  1.0000E+30  1.0000E+30  1.0000E+30  1.0000E+30  1.0000E+30  1.0000E+30  1.0000E+30  1.0000E+30
       1.0000E+30  1.0000E+30  1.0000E+30  1.0000E+30  1.0000E+30  1.0000E+30  1.0000E+30  1.0000E+30  1.0000E+30  1.0000E+30
       1.0000E+30  1.0000E+30  1.0000E+30  1.0000E+30  1.0000E+30  1.0000E+30  1.0000E+30  1.0000E+30  1.0000E+30  1.0000E+30
       1.0000E+30  1.0000E+30  1.0000E+30  1.0000E+30  1.0000E+30  1.0000E+30  1.0000E+30  1.0000E+30  1.0000E+30  1.0000E+30
       1.0000E+30  1.0000E+30  1.0000E+30  1.0000E+30  1.0000E+30  1.0000E+30  1.0000E+30  1.0000E+30  1.0000E+30  1.0000E+30
       1.0000E+30  1.0000E+30  1.0000E+30   70.87       69.77       68.58       67.30       65.93       64.45       62.85    
        61.15       59.36       57.48       55.51       53.47       51.35       49.16       46.91       44.60       42.24    
        39.84       37.40       34.92       32.41       29.86       27.27       24.65       22.00       19.31       16.60    
        13.86       11.09       8.300       5.512       2.757       0.000      1.0000E+30  1.0000E+30  1.0000E+30  1.0000E+30
  32   1.0000E+30  1.0000E+30  1.0000E+30  1.0000E+30  1.0000E+30  1.0000E+30  1.0000E+30  1.0000E+30  1.0000E+30  1.0000E+30
       1.0000E+30  1.0000E+30  1.0000E+30  1.0000E+30  1.0000E+30  1.0000E+30  1.0000E+30  1.0000E+30  1.0000E+30  1.0000E+30
       1.0000E+30  1.0000E+30  1.0000E+30  1.0000E+30  1.0000E+30  1.0000E+30  1.0000E+30  1.0000E+30  1.0000E+30  1.0000E+30
       1.0000E+30  1.0000E+30  1.0000E+30  1.0000E+30  1.0000E+30  1.0000E+30  1.0000E+30  1.0000E+30  1.0000E+30  1.0000E+30
       1.0000E+30  1.0000E+30  1.0000E+30  1.0000E+30  1.0000E+30  1.0000E+30  1.0000E+30  1.0000E+30  1.0000E+30  1.0000E+30
       1.0000E+30  1.0000E+30  1.0000E+30  1.0000E+30  1.0000E+30  1.0000E+30  1.0000E+30  1.0000E+30  1.0000E+30  1.0000E+30
       1.0000E+30  1.0000E+30  1.0000E+30  1.0000E+30  1.0000E+30  1.0000E+30  1.0000E+30  1.0000E+30  1.0000E+30  1.0000E+30
       1.0000E+30  1.0000E+30  1.0000E+30  1.0000E+30  1.0000E+30  1.0000E+30  1.0000E+30  1.0000E+30  1.0000E+30  1.0000E+30
       1.0000E+30  1.0000E+30  1.0000E+30  1.0000E+30  1.0000E+30  1.0000E+30  1.0000E+30  1.0000E+30  1.0000E+30  1.0000E+30
       1.0000E+30  1.0000E+30  1.0000E+30  1.0000E+30  1.0000E+30  1.0000E+30  1.0000E+30  1.0000E+30  1.0000E+30  1.0000E+30
       1.0000E+30  1.0000E+30   73.37       72.35       71.23       70.00       68.65       67.21       65.66       64.01    
        62.27       60.43       58.51       56.50       54.42       52.27       50.04       47.76       45.42       43.03    
        40.59       38.10       35.58       33.01       30.40       27.75       25.06       22.33       19.57       16.78    
        13.95       11.10       8.236       5.413       2.687       0.000      1.0000E+30  1.0000E+30  1.0000E+30  1.0000E+30
  33   1.0000E+30  1.0000E+30  1.0000E+30  1.0000E+30  1.0000E+30  1.0000E+30  1.0000E+30  1.0000E+30  1.0000E+30  1.0000E+30
       1.0000E+30  1.0000E+30  1.0000E+30  1.0000E+30  1.0000E+30  1.0000E+30  1.0000E+30  1.0000E+30  1.0000E+30  1.0000E+30
       1.0000E+30  1.0000E+30  1.0000E+30  1.0000E+30  1.0000E+30  1.0000E+30  1.0000E+30  1.0000E+30  1.0000E+30  1.0000E+30
       1.0000E+30  1.0000E+30  1.0000E+30  1.0000E+30  1.0000E+30  1.0000E+30  1.0000E+30  1.0000E+30  1.0000E+30  1.0000E+30
       1.0000E+30  1.0000E+30  1.0000E+30  1.0000E+30  1.0000E+30  1.0000E+30  1.0000E+30  1.0000E+30  1.0000E+30  1.0000E+30
       1.0000E+30  1.0000E+30  1.0000E+30  1.0000E+30  1.0000E+30  1.0000E+30  1.0000E+30  1.0000E+30  1.0000E+30  1.0000E+30
       1.0000E+30  1.0000E+30  1.0000E+30  1.0000E+30  1.0000E+30  1.0000E+30  1.0000E+30  1.0000E+30  1.0000E+30  1.0000E+30
       1.0000E+30  1.0000E+30  1.0000E+30  1.0000E+30  1.0000E+30  1.0000E+30  1.0000E+30  1.0000E+30  1.0000E+30  1.0000E+30
       1.0000E+30  1.0000E+30  1.0000E+30  1.0000E+30  1.0000E+30  1.0000E+30  1.0000E+30  1.0000E+30  1.0000E+30  1.0000E+30
       1.0000E+30  1.0000E+30  1.0000E+30  1.0000E+30  1.0000E+30  1.0000E+30  1.0000E+30  1.0000E+30  1.0000E+30   76.43    
        76.28       75.81       74.76       73.74       72.63       71.39       70.01       68.51       66.90       65.19    
        63.40       61.52       59.56       57.51       55.38       53.19       50.92       48.60       46.22       43.79    
        41.30       38.77       36.19       33.57       30.90       28.19       25.42       22.61       19.78       16.90    
        13.98       11.02       8.078       5.210       2.504       0.000      1.0000E+30  1.0000E+30  1.0000E+30  1.0000E+30
  34   1.0000E+30  1.0000E+30  1.0000E+30  1.0000E+30  1.0000E+30  1.0000E+30  1.0000E+30  1.0000E+30  1.0000E+30  1.0000E+30
       1.0000E+30  1.0000E+30  1.0000E+30  1.0000E+30  1.0000E+30  1.0000E+30  1.0000E+30  1.0000E+30  1.0000E+30  1.0000E+30
       1.0000E+30  1.0000E+30  1.0000E+30  1.0000E+30  1.0000E+30  1.0000E+30  1.0000E+30  1.0000E+30  1.0000E+30  1.0000E+30
       1.0000E+30  1.0000E+30  1.0000E+30  1.0000E+30  1.0000E+30  1.0000E+30  1.0000E+30  1.0000E+30  1.0000E+30  1.0000E+30
       1.0000E+30  1.0000E+30  1.0000E+30  1.0000E+30  1.0000E+30  1.0000E+30  1.0000E+30  1.0000E+30  1.0000E+30  1.0000E+30
       1.0000E+30  1.0000E+30  1.0000E+30  1.0000E+30  1.0000E+30  1.0000E+30  1.0000E+30  1.0000E+30  1.0000E+30  1.0000E+30
       1.0000E+30  1.0000E+30  1.0000E+30  1.0000E+30  1.0000E+30  1.0000E+30  1.0000E+30  1.0000E+30  1.0000E+30  1.0000E+30
       1.0000E+30  1.0000E+30  1.0000E+30  1.0000E+30  1.0000E+30  1.0000E+30  1.0000E+30  1.0000E+30  1.0000E+30  1.0000E+30
       1.0000E+30  1.0000E+30  1.0000E+30  1.0000E+30  1.0000E+30  1.0000E+30  1.0000E+30  1.0000E+30  1.0000E+30  1.0000E+30
       1.0000E+30  1.0000E+30  1.0000E+30  1.0000E+30  1.0000E+30  1.0000E+30  1.0000E+30  1.0000E+30  1.0000E+30   76.60    
        76.67       76.51       75.94       75.07       74.00       72.76       71.36       69.82       68.15       66.39    
        64.55       62.63       60.62       58.51       56.34       54.10       51.79       49.43       47.00       44.53    
        42.00       39.41       36.78       34.10       31.37       28.59       25.76       22.88       19.95       16.98    
        13.94       10.87       7.792       4.756       1.943       0.000      1.0000E+30  1.0000E+30  1.0000E+30  1.0000E+30
  35   1.0000E+30  1.0000E+30  1.0000E+30  1.0000E+30  1.0000E+30  1.0000E+30  1.0000E+30  1.0000E+30  1.0000E+30  1.0000E+30
       1.0000E+30  1.0000E+30  1.0000E+30  1.0000E+30  1.0000E+30  1.0000E+30  1.0000E+30  1.0000E+30  1.0000E+30  1.0000E+30
       1.0000E+30  1.0000E+30  1.0000E+30  1.0000E+30  1.0000E+30  1.0000E+30  1.0000E+30  1.0000E+30  1.0000E+30  1.0000E+30
       1.0000E+30  1.0000E+30  1.0000E+30  1.0000E+30  1.0000E+30  1.0000E+30  1.0000E+30  1.0000E+30  1.0000E+30  1.0000E+30
       1.0000E+30  1.0000E+30  1.0000E+30  1.0000E+30  1.0000E+30  1.0000E+30  1.0000E+30  1.0000E+30  1.0000E+30  1.0000E+30
       1.0000E+30  1.0000E+30  1.0000E+30  1.0000E+30  1.0000E+30  1.0000E+30  1.0000E+30  1.0000E+30  1.0000E+30  1.0000E+30
       1.0000E+30  1.0000E+30  1.0000E+30  1.0000E+30  1.0000E+30  1.0000E+30  1.0000E+30  1.0000E+30  1.0000E+30  1.0000E+30
       1.0000E+30  1.0000E+30  1.0000E+30  1.0000E+30  1.0000E+30  1.0000E+30  1.0000E+30  1.0000E+30  1.0000E+30  1.0000E+30
       1.0000E+30  1.0000E+30  1.0000E+30  1.0000E+30  1.0000E+30  1.0000E+30  1.0000E+30  1.0000E+30  1.0000E+30  1.0000E+30
       1.0000E+30  1.0000E+30  1.0000E+30  1.0000E+30  1.0000E+30  1.0000E+30  1.0000E+30  1.0000E+30  1.0000E+30  1.0000E+30
        77.33       77.75       77.39       76.57       75.46       74.16       72.71       71.12       69.41       67.60    
        65.70       63.73       61.67       59.52       57.29       55.01       52.65       50.24       47.77       45.24    
        42.66       40.03       37.35       34.61       31.83       28.98       26.08       23.13       20.11       17.03    
        13.89       10.69       7.392       3.916       0.000       0.000      1.0000E+30  1.0000E+30  1.0000E+30  1.0000E+30
  36   1.0000E+30  1.0000E+30  1.0000E+30  1.0000E+30  1.0000E+30  1.0000E+30  1.0000E+30  1.0000E+30  1.0000E+30  1.0000E+30
       1.0000E+30  1.0000E+30  1.0000E+30  1.0000E+30  1.0000E+30  1.0000E+30  1.0000E+30  1.0000E+30  1.0000E+30  1.0000E+30
       1.0000E+30  1.0000E+30  1.0000E+30  1.0000E+30  1.0000E+30  1.0000E+30  1.0000E+30  1.0000E+30  1.0000E+30  1.0000E+30
       1.0000E+30  1.0000E+30  1.0000E+30  1.0000E+30  1.0000E+30  1.0000E+30  1.0000E+30  1.0000E+30  1.0000E+30  1.0000E+30
       1.0000E+30  1.0000E+30  1.0000E+30  1.0000E+30  1.0000E+30  1.0000E+30  1.0000E+30  1.0000E+30  1.0000E+30  1.0000E+30
       1.0000E+30  1.0000E+30  1.0000E+30  1.0000E+30  1.0000E+30  1.0000E+30  1.0000E+30  1.0000E+30  1.0000E+30  1.0000E+30
       1.0000E+30  1.0000E+30  1.0000E+30  1.0000E+30  1.0000E+30  1.0000E+30  1.0000E+30  1.0000E+30  1.0000E+30  1.0000E+30
       1.0000E+30  1.0000E+30  1.0000E+30  1.0000E+30  1.0000E+30  1.0000E+30  1.0000E+30  1.0000E+30  1.0000E+30  1.0000E+30
       1.0000E+30  1.0000E+30  1.0000E+30  1.0000E+30  1.0000E+30  1.0000E+30  1.0000E+30  1.0000E+30  1.0000E+30  1.0000E+30
       1.0000E+30  1.0000E+30  1.0000E+30  1.0000E+30  1.0000E+30  1.0000E+30  1.0000E+30  1.0000E+30  1.0000E+30  1.0000E+30
       1.0000E+30   80.08       79.39       78.35       77.08       75.65       74.09       72.43       70.66       68.79    
        66.84       64.83       62.72       60.51       58.23       55.90       53.50       51.03       48.52       45.94    
        43.31       40.63       37.90       35.11       32.26       29.35       26.39       23.36       20.26       17.11    
        13.89       10.60       7.202       3.672       0.000      1.0000E+30  1.0000E+30  1.0000E+30  1.0000E+30  1.0000E+30
  37   1.0000E+30  1.0000E+30  1.0000E+30  1.0000E+30  1.0000E+30  1.0000E+30  1.0000E+30  1.0000E+30  1.0000E+30  1.0000E+30
       1.0000E+30  1.0000E+30  1.0000E+30  1.0000E+30  1.0000E+30  1.0000E+30  1.0000E+30  1.0000E+30  1.0000E+30  1.0000E+30
       1.0000E+30  1.0000E+30  1.0000E+30  1.0000E+30  1.0000E+30  1.0000E+30  1.0000E+30  1.0000E+30  1.0000E+30  1.0000E+30
       1.0000E+30  1.0000E+30  1.0000E+30  1.0000E+30  1.0000E+30  1.0000E+30  1.0000E+30  1.0000E+30  1.0000E+30  1.0000E+30
       1.0000E+30  1.0000E+30  1.0000E+30  1.0000E+30  1.0000E+30  1.0000E+30  1.0000E+30  1.0000E+30  1.0000E+30  1.0000E+30
       1.0000E+30  1.0000E+30  1.0000E+30  1.0000E+30  1.0000E+30  1.0000E+30  1.0000E+30  1.0000E+30  1.0000E+30  1.0000E+30
       1.0000E+30  1.0000E+30  1.0000E+30  1.0000E+30  1.0000E+30  1.0000E+30  1.0000E+30  1.0000E+30  1.0000E+30  1.0000E+30
       1.0000E+30  1.0000E+30  1.0000E+30  1.0000E+30  1.0000E+30  1.0000E+30  1.0000E+30  1.0000E+30  1.0000E+30  1.0000E+30
       1.0000E+30  1.0000E+30  1.0000E+30  1.0000E+30  1.0000E+30  1.0000E+30  1.0000E+30  1.0000E+30  1.0000E+30  1.0000E+30
       1.0000E+30  1.0000E+30  1.0000E+30  1.0000E+30  1.0000E+30  1.0000E+30  1.0000E+30  1.0000E+30  1.0000E+30  1.0000E+30
        85.35       83.37       81.80       80.30       78.76       77.15       75.48       73.73       71.88       69.96    
        67.97       65.90       63.74       61.48       59.15       56.77       54.33       51.82       49.25       46.62    
        43.95       41.21       38.43       35.58       32.68       29.72       26.69       23.60       20.43       17.21    
        13.94       10.58       7.136       3.601       0.000      1.0000E+30  1.0000E+30  1.0000E+30  1.0000E+30  1.0000E+30
  38   1.0000E+30  1.0000E+30  1.0000E+30  1.0000E+30  1.0000E+30  1.0000E+30  1.0000E+30  1.0000E+30  1.0000E+30  1.0000E+30
       1.0000E+30  1.0000E+30  1.0000E+30  1.0000E+30  1.0000E+30  1.0000E+30  1.0000E+30  1.0000E+30  1.0000E+30  1.0000E+30
       1.0000E+30  1.0000E+30  1.0000E+30  1.0000E+30  1.0000E+30  1.0000E+30  1.0000E+30  1.0000E+30  1.0000E+30  1.0000E+30
       1.0000E+30  1.0000E+30  1.0000E+30  1.0000E+30  1.0000E+30  1.0000E+30  1.0000E+30  1.0000E+30  1.0000E+30  1.0000E+30
       1.0000E+30  1.0000E+30  1.0000E+30  1.0000E+30  1.0000E+30  1.0000E+30  1.0000E+30  1.0000E+30  1.0000E+30  1.0000E+30
       1.0000E+30  1.0000E+30  1.0000E+30  1.0000E+30  1.0000E+30  1.0000E+30  1.0000E+30  1.0000E+30  1.0000E+30  1.0000E+30
       1.0000E+30  1.0000E+30  1.0000E+30  1.0000E+30  1.0000E+30  1.0000E+30  1.0000E+30  1.0000E+30  1.0000E+30  1.0000E+30
       1.0000E+30  1.0000E+30  1.0000E+30  1.0000E+30  1.0000E+30  1.0000E+30  1.0000E+30  1.0000E+30  1.0000E+30  1.0000E+30
       1.0000E+30  1.0000E+30  1.0000E+30  1.0000E+30  1.0000E+30  1.0000E+30   108.6       108.3       107.9       107.4    
        106.7       106.0       105.1       104.2       103.3       102.6      1.0000E+30   94.60       93.28       91.15    
        88.19       85.89       83.93       82.14       80.38       78.62       76.83       74.98       73.07       71.10    
        69.06       66.94       64.73       62.43       60.05       57.62       55.13       52.58       49.96       47.29    
        44.56       41.78       38.95       36.05       33.10       30.08       27.00       23.85       20.64       17.36    
        14.02       10.60       7.124       3.589       0.000      1.0000E+30  1.0000E+30  1.0000E+30  1.0000E+30  1.0000E+30
  39   1.0000E+30  1.0000E+30  1.0000E+30  1.0000E+30  1.0000E+30  1.0000E+30  1.0000E+30  1.0000E+30  1.0000E+30  1.0000E+30
       1.0000E+30  1.0000E+30  1.0000E+30  1.0000E+30  1.0000E+30  1.0000E+30  1.0000E+30  1.0000E+30  1.0000E+30  1.0000E+30
       1.0000E+30  1.0000E+30  1.0000E+30  1.0000E+30  1.0000E+30  1.0000E+30  1.0000E+30  1.0000E+30  1.0000E+30  1.0000E+30
       1.0000E+30  1.0000E+30  1.0000E+30  1.0000E+30  1.0000E+30  1.0000E+30  1.0000E+30  1.0000E+30  1.0000E+30  1.0000E+30
       1.0000E+30  1.0000E+30  1.0000E+30  1.0000E+30  1.0000E+30  1.0000E+30  1.0000E+30  1.0000E+30  1.0000E+30  1.0000E+30
       1.0000E+30  1.0000E+30  1.0000E+30  1.0000E+30  1.0000E+30  1.0000E+30  1.0000E+30  1.0000E+30  1.0000E+30  1.0000E+30
       1.0000E+30  1.0000E+30  1.0000E+30  1.0000E+30  1.0000E+30  1.0000E+30  1.0000E+30  1.0000E+30  1.0000E+30  1.0000E+30
       1.0000E+30  1.0000E+30  1.0000E+30  1.0000E+30  1.0000E+30  1.0000E+30  1.0000E+30  1.0000E+30  1.0000E+30  1.0000E+30
       1.0000E+30  1.0000E+30  1.0000E+30   109.5       109.5       109.3       108.9       108.5       108.0       107.5    
        106.8       106.0       105.1       104.1       102.9       101.4       99.13       96.48       94.35       92.18    
        89.86       87.69       85.67       83.74       81.87       80.00       78.11       76.19       74.22       72.20    
        70.11       67.93       65.68       63.34       60.92       58.44       55.91       53.31       50.65       47.93    
        45.16       42.34       39.45       36.51       33.51       30.44       27.31       24.12       20.86       17.53    
        14.13       10.66       7.158       3.607       0.000      1.0000E+30  1.0000E+30  1.0000E+30  1.0000E+30  1.0000E+30
  40   1.0000E+30  1.0000E+30  1.0000E+30  1.0000E+30  1.0000E+30  1.0000E+30  1.0000E+30  1.0000E+30  1.0000E+30  1.0000E+30
       1.0000E+30  1.0000E+30  1.0000E+30  1.0000E+30  1.0000E+30  1.0000E+30  1.0000E+30  1.0000E+30  1.0000E+30  1.0000E+30
       1.0000E+30  1.0000E+30  1.0000E+30  1.0000E+30  1.0000E+30  1.0000E+30  1.0000E+30  1.0000E+30  1.0000E+30  1.0000E+30
       1.0000E+30  1.0000E+30  1.0000E+30  1.0000E+30  1.0000E+30  1.0000E+30  1.0000E+30  1.0000E+30  1.0000E+30  1.0000E+30
       1.0000E+30  1.0000E+30  1.0000E+30  1.0000E+30  1.0000E+30  1.0000E+30  1.0000E+30  1.0000E+30  1.0000E+30  1.0000E+30
       1.0000E+30  1.0000E+30  1.0000E+30  1.0000E+30  1.0000E+30  1.0000E+30  1.0000E+30  1.0000E+30  1.0000E+30  1.0000E+30
       1.0000E+30  1.0000E+30  1.0000E+30  1.0000E+30  1.0000E+30  1.0000E+30  1.0000E+30  1.0000E+30  1.0000E+30  1.0000E+30
       1.0000E+30  1.0000E+30  1.0000E+30  1.0000E+30  1.0000E+30  1.0000E+30  1.0000E+30  1.0000E+30  1.0000E+30  1.0000E+30
       1.0000E+30  1.0000E+30  1.0000E+30  1.0000E+30   109.7       109.5       109.2       108.8       108.3       107.7    
        107.0       106.1       105.2       104.1       102.8       101.3       99.43       97.36       95.32       93.25    
        91.15       89.08       87.08       85.11       83.18       81.26       79.32       77.34       75.31       73.24    
        71.10       68.88       66.58       64.20       61.75       59.23       56.65       54.02       51.32       48.57    
        45.75       42.88       39.95       36.96       33.91       30.79       27.62       24.38       21.08       17.72    
        14.27       10.77       7.225       3.637       0.000      1.0000E+30  1.0000E+30  1.0000E+30  1.0000E+30  1.0000E+30
  41   1.0000E+30  1.0000E+30  1.0000E+30  1.0000E+30  1.0000E+30  1.0000E+30  1.0000E+30  1.0000E+30  1.0000E+30  1.0000E+30
       1.0000E+30  1.0000E+30  1.0000E+30  1.0000E+30  1.0000E+30  1.0000E+30  1.0000E+30  1.0000E+30  1.0000E+30  1.0000E+30
       1.0000E+30  1.0000E+30  1.0000E+30  1.0000E+30  1.0000E+30  1.0000E+30  1.0000E+30  1.0000E+30  1.0000E+30  1.0000E+30
       1.0000E+30  1.0000E+30  1.0000E+30  1.0000E+30  1.0000E+30  1.0000E+30  1.0000E+30  1.0000E+30  1.0000E+30  1.0000E+30
       1.0000E+30  1.0000E+30  1.0000E+30  1.0000E+30  1.0000E+30  1.0000E+30  1.0000E+30  1.0000E+30  1.0000E+30  1.0000E+30
       1.0000E+30  1.0000E+30  1.0000E+30  1.0000E+30  1.0000E+30  1.0000E+30  1.0000E+30  1.0000E+30  1.0000E+30  1.0000E+30
       1.0000E+30  1.0000E+30  1.0000E+30  1.0000E+30  1.0000E+30  1.0000E+30  1.0000E+30  1.0000E+30  1.0000E+30  1.0000E+30
       1.0000E+30  1.0000E+30  1.0000E+30  1.0000E+30  1.0000E+30  1.0000E+30  1.0000E+30  1.0000E+30  1.0000E+30  1.0000E+30
       1.0000E+30  1.0000E+30  1.0000E+30  1.0000E+30   110.1       109.9       109.6       109.2       108.6       108.0    
        107.2       106.4       105.4       104.3       103.0       101.5       99.85       98.03       96.14       94.20    
        92.22       90.24       88.26       86.29       84.35       82.40       80.43       78.40       76.34       74.22    
        72.04       69.78       67.45       65.03       62.54       59.98       57.36       54.68       51.96       49.18    
[...]
       1.0000E+30  1.0000E+30  1.0000E+30  1.0000E+30  1.0000E+30  1.0000E+30  1.0000E+30  1.0000E+30  1.0000E+30  1.0000E+30
       1.0000E+30  1.0000E+30  1.0000E+30  1.0000E+30  1.0000E+30  1.0000E+30  1.0000E+30  1.0000E+30  1.0000E+30  1.0000E+30
       1.0000E+30  1.0000E+30  1.0000E+30  1.0000E+30  1.0000E+30  1.0000E+30  1.0000E+30  1.0000E+30  1.0000E+30  1.0000E+30
 131   1.0000E+30  1.0000E+30  1.0000E+30  1.0000E+30  1.0000E+30  1.0000E+30  1.0000E+30  1.0000E+30  1.0000E+30  1.0000E+30
       1.0000E+30  1.0000E+30  1.0000E+30  1.0000E+30  1.0000E+30  1.0000E+30  1.0000E+30  1.0000E+30  1.0000E+30  1.0000E+30
       1.0000E+30  1.0000E+30  1.0000E+30  1.0000E+30  1.0000E+30  1.0000E+30  1.0000E+30  1.0000E+30  1.0000E+30  1.0000E+30
       1.0000E+30  1.0000E+30  1.0000E+30  1.0000E+30  1.0000E+30  1.0000E+30  1.0000E+30  1.0000E+30  1.0000E+30  1.0000E+30
       1.0000E+30  1.0000E+30  1.0000E+30  1.0000E+30  1.0000E+30  1.0000E+30  1.0000E+30  1.0000E+30  1.0000E+30  1.0000E+30
       1.0000E+30  1.0000E+30  1.0000E+30  1.0000E+30  1.0000E+30  1.0000E+30  1.0000E+30  1.0000E+30  1.0000E+30  1.0000E+30
       1.0000E+30  1.0000E+30   146.0       146.1      1.0000E+30  1.0000E+30  1.0000E+30   145.6       145.6       145.6    
        145.6       145.6      1.0000E+30  1.0000E+30  1.0000E+30  1.0000E+30  1.0000E+30  1.0000E+30  1.0000E+30  1.0000E+30
       1.0000E+30  1.0000E+30  1.0000E+30  1.0000E+30  1.0000E+30  1.0000E+30  1.0000E+30  1.0000E+30  1.0000E+30  1.0000E+30
       1.0000E+30  1.0000E+30  1.0000E+30  1.0000E+30  1.0000E+30  1.0000E+30  1.0000E+30  1.0000E+30  1.0000E+30  1.0000E+30
       1.0000E+30  1.0000E+30  1.0000E+30  1.0000E+30  1.0000E+30  1.0000E+30  1.0000E+30  1.0000E+30  1.0000E+30  1.0000E+30
       1.0000E+30  1.0000E+30  1.0000E+30  1.0000E+30  1.0000E+30  1.0000E+30  1.0000E+30  1.0000E+30  1.0000E+30  1.0000E+30
       1.0000E+30  1.0000E+30  1.0000E+30  1.0000E+30  1.0000E+30  1.0000E+30  1.0000E+30  1.0000E+30  1.0000E+30  1.0000E+30
       1.0000E+30  1.0000E+30  1.0000E+30  1.0000E+30  1.0000E+30  1.0000E+30  1.0000E+30  1.0000E+30  1.0000E+30  1.0000E+30
 132   1.0000E+30  1.0000E+30  1.0000E+30  1.0000E+30  1.0000E+30  1.0000E+30  1.0000E+30  1.0000E+30  1.0000E+30  1.0000E+30
       1.0000E+30  1.0000E+30  1.0000E+30  1.0000E+30  1.0000E+30  1.0000E+30  1.0000E+30  1.0000E+30  1.0000E+30  1.0000E+30
       1.0000E+30  1.0000E+30  1.0000E+30  1.0000E+30  1.0000E+30  1.0000E+30  1.0000E+30  1.0000E+30  1.0000E+30  1.0000E+30
       1.0000E+30  1.0000E+30  1.0000E+30  1.0000E+30  1.0000E+30  1.0000E+30  1.0000E+30  1.0000E+30  1.0000E+30  1.0000E+30
       1.0000E+30  1.0000E+30  1.0000E+30  1.0000E+30  1.0000E+30  1.0000E+30  1.0000E+30  1.0000E+30  1.0000E+30  1.0000E+30
       1.0000E+30  1.0000E+30  1.0000E+30  1.0000E+30  1.0000E+30  1.0000E+30  1.0000E+30  1.0000E+30  1.0000E+30  1.0000E+30
       1.0000E+30  1.0000E+30  1.0000E+30  1.0000E+30  1.0000E+30  1.0000E+30   145.7       145.7      1.0000E+30  1.0000E+30
       1.0000E+30  1.0000E+30  1.0000E+30  1.0000E+30  1.0000E+30  1.0000E+30  1.0000E+30  1.0000E+30  1.0000E+30  1.0000E+30
       1.0000E+30  1.0000E+30  1.0000E+30  1.0000E+30  1.0000E+30  1.0000E+30  1.0000E+30  1.0000E+30  1.0000E+30  1.0000E+30
       1.0000E+30  1.0000E+30  1.0000E+30  1.0000E+30  1.0000E+30  1.0000E+30  1.0000E+30  1.0000E+30  1.0000E+30  1.0000E+30
       1.0000E+30  1.0000E+30  1.0000E+30  1.0000E+30  1.0000E+30  1.0000E+30  1.0000E+30  1.0000E+30  1.0000E+30  1.0000E+30
       1.0000E+30  1.0000E+30  1.0000E+30  1.0000E+30  1.0000E+30  1.0000E+30  1.0000E+30  1.0000E+30  1.0000E+30  1.0000E+30
       1.0000E+30  1.0000E+30  1.0000E+30  1.0000E+30  1.0000E+30  1.0000E+30  1.0000E+30  1.0000E+30  1.0000E+30  1.0000E+30
       1.0000E+30  1.0000E+30  1.0000E+30  1.0000E+30  1.0000E+30  1.0000E+30  1.0000E+30  1.0000E+30  1.0000E+30  1.0000E+30
 133   1.0000E+30  1.0000E+30  1.0000E+30  1.0000E+30  1.0000E+30  1.0000E+30  1.0000E+30  1.0000E+30  1.0000E+30  1.0000E+30
       1.0000E+30  1.0000E+30  1.0000E+30  1.0000E+30  1.0000E+30  1.0000E+30  1.0000E+30  1.0000E+30  1.0000E+30  1.0000E+30
       1.0000E+30  1.0000E+30  1.0000E+30  1.0000E+30  1.0000E+30  1.0000E+30  1.0000E+30  1.0000E+30  1.0000E+30  1.0000E+30
       1.0000E+30  1.0000E+30  1.0000E+30  1.0000E+30  1.0000E+30  1.0000E+30  1.0000E+30  1.0000E+30  1.0000E+30  1.0000E+30
       1.0000E+30  1.0000E+30  1.0000E+30  1.0000E+30  1.0000E+30  1.0000E+30  1.0000E+30  1.0000E+30  1.0000E+30  1.0000E+30
       1.0000E+30  1.0000E+30  1.0000E+30  1.0000E+30  1.0000E+30  1.0000E+30  1.0000E+30  1.0000E+30  1.0000E+30  1.0000E+30
       1.0000E+30  1.0000E+30  1.0000E+30  1.0000E+30  1.0000E+30  1.0000E+30  1.0000E+30  1.0000E+30  1.0000E+30  1.0000E+30
       1.0000E+30  1.0000E+30  1.0000E+30  1.0000E+30  1.0000E+30  1.0000E+30  1.0000E+30  1.0000E+30  1.0000E+30  1.0000E+30
       1.0000E+30  1.0000E+30  1.0000E+30  1.0000E+30  1.0000E+30  1.0000E+30  1.0000E+30  1.0000E+30  1.0000E+30  1.0000E+30
       1.0000E+30  1.0000E+30  1.0000E+30  1.0000E+30  1.0000E+30  1.0000E+30  1.0000E+30  1.0000E+30  1.0000E+30  1.0000E+30
       1.0000E+30  1.0000E+30  1.0000E+30  1.0000E+30  1.0000E+30  1.0000E+30  1.0000E+30  1.0000E+30  1.0000E+30  1.0000E+30
       1.0000E+30  1.0000E+30  1.0000E+30  1.0000E+30  1.0000E+30  1.0000E+30  1.0000E+30  1.0000E+30  1.0000E+30  1.0000E+30
       1.0000E+30  1.0000E+30  1.0000E+30  1.0000E+30  1.0000E+30  1.0000E+30  1.0000E+30  1.0000E+30  1.0000E+30  1.0000E+30
       1.0000E+30  1.0000E+30  1.0000E+30  1.0000E+30  1.0000E+30  1.0000E+30  1.0000E+30  1.0000E+30  1.0000E+30  1.0000E+30
 134   1.0000E+30  1.0000E+30  1.0000E+30  1.0000E+30  1.0000E+30  1.0000E+30  1.0000E+30  1.0000E+30  1.0000E+30  1.0000E+30
       1.0000E+30  1.0000E+30  1.0000E+30  1.0000E+30  1.0000E+30  1.0000E+30  1.0000E+30  1.0000E+30  1.0000E+30  1.0000E+30
       1.0000E+30  1.0000E+30  1.0000E+30  1.0000E+30  1.0000E+30  1.0000E+30  1.0000E+30  1.0000E+30  1.0000E+30  1.0000E+30
       1.0000E+30  1.0000E+30  1.0000E+30  1.0000E+30  1.0000E+30  1.0000E+30  1.0000E+30  1.0000E+30  1.0000E+30  1.0000E+30
       1.0000E+30  1.0000E+30  1.0000E+30  1.0000E+30  1.0000E+30  1.0000E+30  1.0000E+30  1.0000E+30  1.0000E+30  1.0000E+30
       1.0000E+30  1.0000E+30  1.0000E+30  1.0000E+30  1.0000E+30  1.0000E+30  1.0000E+30  1.0000E+30  1.0000E+30  1.0000E+30
       1.0000E+30  1.0000E+30  1.0000E+30  1.0000E+30  1.0000E+30  1.0000E+30  1.0000E+30  1.0000E+30  1.0000E+30  1.0000E+30
       1.0000E+30  1.0000E+30  1.0000E+30  1.0000E+30  1.0000E+30  1.0000E+30  1.0000E+30  1.0000E+30  1.0000E+30  1.0000E+30
       1.0000E+30  1.0000E+30  1.0000E+30  1.0000E+30  1.0000E+30  1.0000E+30  1.0000E+30  1.0000E+30  1.0000E+30  1.0000E+30
       1.0000E+30  1.0000E+30  1.0000E+30  1.0000E+30  1.0000E+30  1.0000E+30  1.0000E+30  1.0000E+30  1.0000E+30  1.0000E+30
       1.0000E+30  1.0000E+30  1.0000E+30  1.0000E+30  1.0000E+30  1.0000E+30  1.0000E+30  1.0000E+30  1.0000E+30  1.0000E+30
       1.0000E+30  1.0000E+30  1.0000E+30  1.0000E+30  1.0000E+30  1.0000E+30  1.0000E+30  1.0000E+30  1.0000E+30  1.0000E+30
       1.0000E+30  1.0000E+30  1.0000E+30  1.0000E+30  1.0000E+30  1.0000E+30  1.0000E+30  1.0000E+30  1.0000E+30  1.0000E+30
       1.0000E+30  1.0000E+30  1.0000E+30  1.0000E+30  1.0000E+30  1.0000E+30  1.0000E+30  1.0000E+30  1.0000E+30  1.0000E+30
 135   1.0000E+30  1.0000E+30  1.0000E+30  1.0000E+30  1.0000E+30  1.0000E+30  1.0000E+30  1.0000E+30  1.0000E+30  1.0000E+30
       1.0000E+30  1.0000E+30  1.0000E+30  1.0000E+30  1.0000E+30  1.0000E+30  1.0000E+30  1.0000E+30  1.0000E+30  1.0000E+30
       1.0000E+30  1.0000E+30  1.0000E+30  1.0000E+30  1.0000E+30  1.0000E+30  1.0000E+30  1.0000E+30  1.0000E+30  1.0000E+30
       1.0000E+30  1.0000E+30  1.0000E+30  1.0000E+30  1.0000E+30  1.0000E+30  1.0000E+30  1.0000E+30  1.0000E+30  1.0000E+30
       1.0000E+30  1.0000E+30  1.0000E+30  1.0000E+30  1.0000E+30  1.0000E+30  1.0000E+30  1.0000E+30  1.0000E+30  1.0000E+30
       1.0000E+30  1.0000E+30  1.0000E+30  1.0000E+30  1.0000E+30  1.0000E+30  1.0000E+30  1.0000E+30  1.0000E+30  1.0000E+30
       1.0000E+30  1.0000E+30  1.0000E+30  1.0000E+30  1.0000E+30  1.0000E+30  1.0000E+30  1.0000E+30  1.0000E+30  1.0000E+30
       1.0000E+30  1.0000E+30  1.0000E+30  1.0000E+30  1.0000E+30  1.0000E+30  1.0000E+30  1.0000E+30  1.0000E+30  1.0000E+30
       1.0000E+30  1.0000E+30  1.0000E+30  1.0000E+30  1.0000E+30  1.0000E+30  1.0000E+30  1.0000E+30  1.0000E+30  1.0000E+30
       1.0000E+30  1.0000E+30  1.0000E+30  1.0000E+30  1.0000E+30  1.0000E+30  1.0000E+30  1.0000E+30  1.0000E+30  1.0000E+30
       1.0000E+30  1.0000E+30  1.0000E+30  1.0000E+30  1.0000E+30  1.0000E+30  1.0000E+30  1.0000E+30  1.0000E+30  1.0000E+30
       1.0000E+30  1.0000E+30  1.0000E+30  1.0000E+30  1.0000E+30  1.0000E+30  1.0000E+30  1.0000E+30  1.0000E+30  1.0000E+30
       1.0000E+30  1.0000E+30  1.0000E+30  1.0000E+30  1.0000E+30  1.0000E+30  1.0000E+30  1.0000E+30  1.0000E+30  1.0000E+30
       1.0000E+30  1.0000E+30  1.0000E+30  1.0000E+30  1.0000E+30  1.0000E+30  1.0000E+30  1.0000E+30  1.0000E+30  1.0000E+30
 136   1.0000E+30  1.0000E+30  1.0000E+30  1.0000E+30  1.0000E+30  1.0000E+30  1.0000E+30  1.0000E+30  1.0000E+30  1.0000E+30
       1.0000E+30  1.0000E+30  1.0000E+30  1.0000E+30  1.0000E+30  1.0000E+30  1.0000E+30  1.0000E+30  1.0000E+30  1.0000E+30
       1.0000E+30  1.0000E+30  1.0000E+30  1.0000E+30  1.0000E+30  1.0000E+30  1.0000E+30  1.0000E+30  1.0000E+30  1.0000E+30
       1.0000E+30  1.0000E+30  1.0000E+30  1.0000E+30  1.0000E+30  1.0000E+30  1.0000E+30  1.0000E+30  1.0000E+30  1.0000E+30
       1.0000E+30  1.0000E+30  1.0000E+30  1.0000E+30  1.0000E+30  1.0000E+30  1.0000E+30  1.0000E+30  1.0000E+30  1.0000E+30
       1.0000E+30  1.0000E+30  1.0000E+30  1.0000E+30  1.0000E+30  1.0000E+30  1.0000E+30  1.0000E+30  1.0000E+30  1.0000E+30
       1.0000E+30  1.0000E+30  1.0000E+30  1.0000E+30  1.0000E+30  1.0000E+30  1.0000E+30  1.0000E+30  1.0000E+30  1.0000E+30
       1.0000E+30  1.0000E+30  1.0000E+30  1.0000E+30  1.0000E+30  1.0000E+30  1.0000E+30  1.0000E+30  1.0000E+30  1.0000E+30
       1.0000E+30  1.0000E+30  1.0000E+30  1.0000E+30  1.0000E+30  1.0000E+30  1.0000E+30  1.0000E+30  1.0000E+30  1.0000E+30
       1.0000E+30  1.0000E+30  1.0000E+30  1.0000E+30  1.0000E+30  1.0000E+30  1.0000E+30  1.0000E+30  1.0000E+30  1.0000E+30
       1.0000E+30  1.0000E+30  1.0000E+30  1.0000E+30  1.0000E+30  1.0000E+30  1.0000E+30  1.0000E+30  1.0000E+30  1.0000E+30
       1.0000E+30  1.0000E+30  1.0000E+30  1.0000E+30  1.0000E+30  1.0000E+30  1.0000E+30  1.0000E+30  1.0000E+30  1.0000E+30
       1.0000E+30  1.0000E+30  1.0000E+30  1.0000E+30  1.0000E+30  1.0000E+30  1.0000E+30  1.0000E+30  1.0000E+30  1.0000E+30
       1.0000E+30  1.0000E+30  1.0000E+30  1.0000E+30  1.0000E+30  1.0000E+30  1.0000E+30  1.0000E+30  1.0000E+30  1.0000E+30
 137   1.0000E+30  1.0000E+30  1.0000E+30  1.0000E+30  1.0000E+30  1.0000E+30  1.0000E+30  1.0000E+30  1.0000E+30  1.0000E+30
       1.0000E+30  1.0000E+30  1.0000E+30  1.0000E+30  1.0000E+30  1.0000E+30  1.0000E+30  1.0000E+30  1.0000E+30  1.0000E+30
       1.0000E+30  1.0000E+30  1.0000E+30  1.0000E+30  1.0000E+30  1.0000E+30  1.0000E+30  1.0000E+30  1.0000E+30  1.0000E+30
       1.0000E+30  1.0000E+30  1.0000E+30  1.0000E+30  1.0000E+30  1.0000E+30  1.0000E+30  1.0000E+30  1.0000E+30  1.0000E+30
       1.0000E+30  1.0000E+30  1.0000E+30  1.0000E+30  1.0000E+30  1.0000E+30  1.0000E+30  1.0000E+30  1.0000E+30  1.0000E+30
       1.0000E+30  1.0000E+30  1.0000E+30  1.0000E+30  1.0000E+30  1.0000E+30  1.0000E+30  1.0000E+30  1.0000E+30  1.0000E+30
       1.0000E+30  1.0000E+30  1.0000E+30  1.0000E+30  1.0000E+30  1.0000E+30  1.0000E+30  1.0000E+30  1.0000E+30  1.0000E+30
       1.0000E+30  1.0000E+30  1.0000E+30  1.0000E+30  1.0000E+30  1.0000E+30  1.0000E+30  1.0000E+30  1.0000E+30  1.0000E+30
       1.0000E+30  1.0000E+30  1.0000E+30  1.0000E+30  1.0000E+30  1.0000E+30  1.0000E+30  1.0000E+30  1.0000E+30  1.0000E+30
       1.0000E+30  1.0000E+30  1.0000E+30  1.0000E+30  1.0000E+30  1.0000E+30  1.0000E+30  1.0000E+30  1.0000E+30  1.0000E+30
       1.0000E+30  1.0000E+30  1.0000E+30  1.0000E+30  1.0000E+30  1.0000E+30  1.0000E+30  1.0000E+30  1.0000E+30  1.0000E+30
       1.0000E+30  1.0000E+30  1.0000E+30  1.0000E+30  1.0000E+30  1.0000E+30  1.0000E+30  1.0000E+30  1.0000E+30  1.0000E+30
       1.0000E+30  1.0000E+30  1.0000E+30  1.0000E+30  1.0000E+30  1.0000E+30  1.0000E+30  1.0000E+30  1.0000E+30  1.0000E+30
       1.0000E+30  1.0000E+30  1.0000E+30  1.0000E+30  1.0000E+30  1.0000E+30  1.0000E+30  1.0000E+30  1.0000E+30  1.0000E+30
 138   1.0000E+30  1.0000E+30  1.0000E+30  1.0000E+30  1.0000E+30  1.0000E+30  1.0000E+30  1.0000E+30  1.0000E+30  1.0000E+30
       1.0000E+30  1.0000E+30  1.0000E+30  1.0000E+30  1.0000E+30  1.0000E+30  1.0000E+30  1.0000E+30  1.0000E+30  1.0000E+30
       1.0000E+30  1.0000E+30  1.0000E+30  1.0000E+30  1.0000E+30  1.0000E+30  1.0000E+30  1.0000E+30  1.0000E+30  1.0000E+30
       1.0000E+30  1.0000E+30  1.0000E+30  1.0000E+30  1.0000E+30  1.0000E+30  1.0000E+30  1.0000E+30  1.0000E+30  1.0000E+30
       1.0000E+30  1.0000E+30  1.0000E+30  1.0000E+30  1.0000E+30  1.0000E+30  1.0000E+30  1.0000E+30  1.0000E+30  1.0000E+30
       1.0000E+30  1.0000E+30  1.0000E+30  1.0000E+30  1.0000E+30  1.0000E+30  1.0000E+30  1.0000E+30  1.0000E+30  1.0000E+30
       1.0000E+30  1.0000E+30  1.0000E+30  1.0000E+30  1.0000E+30  1.0000E+30  1.0000E+30  1.0000E+30  1.0000E+30  1.0000E+30
       1.0000E+30  1.0000E+30  1.0000E+30  1.0000E+30  1.0000E+30  1.0000E+30  1.0000E+30  1.0000E+30  1.0000E+30  1.0000E+30
       1.0000E+30  1.0000E+30  1.0000E+30  1.0000E+30  1.0000E+30  1.0000E+30  1.0000E+30  1.0000E+30  1.0000E+30  1.0000E+30
       1.0000E+30  1.0000E+30  1.0000E+30  1.0000E+30  1.0000E+30  1.0000E+30  1.0000E+30  1.0000E+30  1.0000E+30  1.0000E+30
       1.0000E+30  1.0000E+30  1.0000E+30  1.0000E+30  1.0000E+30  1.0000E+30  1.0000E+30  1.0000E+30  1.0000E+30  1.0000E+30
       1.0000E+30  1.0000E+30  1.0000E+30  1.0000E+30  1.0000E+30  1.0000E+30  1.0000E+30  1.0000E+30  1.0000E+30  1.0000E+30
       1.0000E+30  1.0000E+30  1.0000E+30  1.0000E+30  1.0000E+30  1.0000E+30  1.0000E+30  1.0000E+30  1.0000E+30  1.0000E+30
       1.0000E+30  1.0000E+30  1.0000E+30  1.0000E+30  1.0000E+30  1.0000E+30  1.0000E+30  1.0000E+30  1.0000E+30  1.0000E+30
 139   1.0000E+30  1.0000E+30  1.0000E+30  1.0000E+30  1.0000E+30  1.0000E+30  1.0000E+30  1.0000E+30  1.0000E+30  1.0000E+30
       1.0000E+30  1.0000E+30  1.0000E+30  1.0000E+30  1.0000E+30  1.0000E+30  1.0000E+30  1.0000E+30  1.0000E+30  1.0000E+30
       1.0000E+30  1.0000E+30  1.0000E+30  1.0000E+30  1.0000E+30  1.0000E+30  1.0000E+30  1.0000E+30  1.0000E+30  1.0000E+30
       1.0000E+30  1.0000E+30  1.0000E+30  1.0000E+30  1.0000E+30  1.0000E+30  1.0000E+30  1.0000E+30  1.0000E+30  1.0000E+30
       1.0000E+30  1.0000E+30  1.0000E+30  1.0000E+30  1.0000E+30  1.0000E+30  1.0000E+30  1.0000E+30  1.0000E+30  1.0000E+30
       1.0000E+30  1.0000E+30  1.0000E+30  1.0000E+30  1.0000E+30  1.0000E+30  1.0000E+30  1.0000E+30  1.0000E+30  1.0000E+30
       1.0000E+30  1.0000E+30  1.0000E+30  1.0000E+30  1.0000E+30  1.0000E+30  1.0000E+30  1.0000E+30  1.0000E+30  1.0000E+30
       1.0000E+30  1.0000E+30  1.0000E+30  1.0000E+30  1.0000E+30  1.0000E+30  1.0000E+30  1.0000E+30  1.0000E+30  1.0000E+30
       1.0000E+30  1.0000E+30  1.0000E+30  1.0000E+30  1.0000E+30  1.0000E+30  1.0000E+30  1.0000E+30  1.0000E+30  1.0000E+30
       1.0000E+30  1.0000E+30  1.0000E+30  1.0000E+30  1.0000E+30  1.0000E+30  1.0000E+30  1.0000E+30  1.0000E+30  1.0000E+30
       1.0000E+30  1.0000E+30  1.0000E+30  1.0000E+30  1.0000E+30  1.0000E+30  1.0000E+30  1.0000E+30  1.0000E+30  1.0000E+30
       1.0000E+30  1.0000E+30  1.0000E+30  1.0000E+30  1.0000E+30  1.0000E+30  1.0000E+30  1.0000E+30  1.0000E+30  1.0000E+30
       1.0000E+30  1.0000E+30  1.0000E+30  1.0000E+30  1.0000E+30  1.0000E+30  1.0000E+30  1.0000E+30  1.0000E+30  1.0000E+30
       1.0000E+30  1.0000E+30  1.0000E+30  1.0000E+30  1.0000E+30  1.0000E+30  1.0000E+30  1.0000E+30  1.0000E+30  1.0000E+30
 140   1.0000E+30  1.0000E+30  1.0000E+30  1.0000E+30  1.0000E+30  1.0000E+30  1.0000E+30  1.0000E+30  1.0000E+30  1.0000E+30
       1.0000E+30  1.0000E+30  1.0000E+30  1.0000E+30  1.0000E+30  1.0000E+30  1.0000E+30  1.0000E+30  1.0000E+30  1.0000E+30
       1.0000E+30  1.0000E+30  1.0000E+30  1.0000E+30  1.0000E+30  1.0000E+30  1.0000E+30  1.0000E+30  1.0000E+30  1.0000E+30
       1.0000E+30  1.0000E+30  1.0000E+30  1.0000E+30  1.0000E+30  1.0000E+30  1.0000E+30  1.0000E+30  1.0000E+30  1.0000E+30
       1.0000E+30  1.0000E+30  1.0000E+30  1.0000E+30  1.0000E+30  1.0000E+30  1.0000E+30  1.0000E+30  1.0000E+30  1.0000E+30
       1.0000E+30  1.0000E+30  1.0000E+30  1.0000E+30  1.0000E+30  1.0000E+30  1.0000E+30  1.0000E+30  1.0000E+30  1.0000E+30
       1.0000E+30  1.0000E+30  1.0000E+30  1.0000E+30  1.0000E+30  1.0000E+30  1.0000E+30  1.0000E+30  1.0000E+30  1.0000E+30
       1.0000E+30  1.0000E+30  1.0000E+30  1.0000E+30  1.0000E+30  1.0000E+30  1.0000E+30  1.0000E+30  1.0000E+30  1.0000E+30
       1.0000E+30  1.0000E+30  1.0000E+30  1.0000E+30  1.0000E+30  1.0000E+30  1.0000E+30  1.0000E+30  1.0000E+30  1.0000E+30
       1.0000E+30  1.0000E+30  1.0000E+30  1.0000E+30  1.0000E+30  1.0000E+30  1.0000E+30  1.0000E+30  1.0000E+30  1.0000E+30
       1.0000E+30  1.0000E+30  1.0000E+30  1.0000E+30  1.0000E+30  1.0000E+30  1.0000E+30  1.0000E+30  1.0000E+30  1.0000E+30
       1.0000E+30  1.0000E+30  1.0000E+30  1.0000E+30  1.0000E+30  1.0000E+30  1.0000E+30  1.0000E+30  1.0000E+30  1.0000E+30
       1.0000E+30  1.0000E+30  1.0000E+30  1.0000E+30  1.0000E+30  1.0000E+30  1.0000E+30  1.0000E+30  1.0000E+30  1.0000E+30
       1.0000E+30  1.0000E+30  1.0000E+30  1.0000E+30  1.0000E+30  1.0000E+30  1.0000E+30  1.0000E+30  1.0000E+30  1.0000E+30

 HEAD WILL BE SAVED ON UNIT 1014 AT END OF TIME STEP    1, STRESS PERIOD    1


  VOLUME BUDGET FOR ENTIRE MODEL AT END OF TIME STEP    1, STRESS PERIOD   1
  ---------------------------------------------------------------------------------------------------

     CUMULATIVE VOLUME      L**3       RATES FOR THIS TIME STEP      L**3/T          PACKAGE NAME    
     ------------------                 ------------------------                     ----------------

           IN:                                      IN:
           ---                                      ---
                 RCH =           2.8253                   RCH =           2.8253     RCHA            
                 CHD =           0.0000                   CHD =           0.0000     CHD             

            TOTAL IN =           2.8253              TOTAL IN =           2.8253

          OUT:                                     OUT:
          ----                                     ----
                 RCH =           0.0000                   RCH =           0.0000     RCHA            
                 CHD =           2.8045                   CHD =           2.8045     CHD             

           TOTAL OUT =           2.8045             TOTAL OUT =           2.8045

            IN - OUT =       2.0807E-02              IN - OUT =       2.0807E-02

 PERCENT DISCREPANCY =           0.74     PERCENT DISCREPANCY =           0.74




         TIME SUMMARY AT END OF TIME STEP    1 IN STRESS PERIOD    1
                    SECONDS     MINUTES      HOURS       DAYS        YEARS
                    -----------------------------------------------------------
   TIME STEP LENGTH  1.0000     1.66667E-02 2.77778E-04 1.15741E-05 3.16881E-08
 STRESS PERIOD TIME  1.0000     1.66667E-02 2.77778E-04 1.15741E-05 3.16881E-08
         TOTAL TIME  1.0000     1.66667E-02 2.77778E-04 1.15741E-05 3.16881E-08
